# generated using pymatgen
data_Zn4H48C54O13
_symmetry_space_group_name_H-M   'P 1'
_cell_length_a   22.75285103
_cell_length_b   22.75287142
_cell_length_c   25.73376840
_cell_angle_alpha   63.75046586
_cell_angle_beta   63.75042802
_cell_angle_gamma   59.98467867
_symmetry_Int_Tables_number   1
_chemical_formula_structural   Zn4H48C54O13
_chemical_formula_sum   'Zn16 H192 C216 O52'
_cell_volume   9918.05838720
_cell_formula_units_Z   4
loop_
 _symmetry_equiv_pos_site_id
 _symmetry_equiv_pos_as_xyz
  1  'x, y, z'
loop_
 _atom_site_type_symbol
 _atom_site_label
 _atom_site_symmetry_multiplicity
 _atom_site_fract_x
 _atom_site_fract_y
 _atom_site_fract_z
 _atom_site_occupancy
 _atom_site_pbe_bader_charge
 _atom_site_pbe_bader_spin_density
 _atom_site_pbe_cm5_charge
 _atom_site_pbe_ddec_charge
 _atom_site_pbe_ddec_spin_density
 _atom_site_pbe_ddec_sum_bond_order
 _atom_site_pbe_magmom
Zn  Zn0  1  0.54329563  0.54323665  0.37011871  1  1.284194  0  0.668851  0.933886  0  2.464971  0
Zn  Zn1  1  0.95676212  0.95670463  0.12988330  1  1.284222  0  0.668812  0.933806  0  2.465185  0
Zn  Zn2  1  0.45670630  0.45676192  0.62988127  1  1.284149  0  0.66886  0.933902  0  2.465272  0
Zn  Zn3  1  0.04323929  0.04329267  0.87011894  1  1.284201  0  0.668832  0.933877  0  2.465033  0
Zn  Zn4  1  0.02773784  0.17620611  0.75602753  1  1.317867  0  0.670123  0.966666  0  2.367339  0
Zn  Zn5  1  0.17618529  0.03988959  0.75613006  1  1.320517  0  0.670123  0.966444  0  2.36799  0
Zn  Zn6  1  0.03994289  0.02774233  0.75609811  1  1.317093  0  0.670139  0.966537  0  2.368311  0
Zn  Zn7  1  0.47225596  0.46005917  0.74389970  1  1.317171  0  0.670087  0.966412  0  2.368417  0
Zn  Zn8  1  0.32379482  0.47226148  0.74396955  1  1.317933  0  0.670114  0.966738  0  2.367502  0
Zn  Zn9  1  0.46010955  0.32381819  0.74386647  1  1.320519  0  0.670104  0.966371  0  2.367978  0
Zn  Zn10  1  0.97226515  0.82379254  0.24396967  1  1.317939  0  0.670106  0.966691  0  2.367334  0
Zn  Zn11  1  0.82381294  0.96010793  0.24387178  1  1.320785  0  0.670155  0.966442  0  2.367884  0
Zn  Zn12  1  0.96005905  0.97225575  0.24390206  1  1.317218  0  0.67011  0.966473  0  2.368463  0
Zn  Zn13  1  0.52774491  0.53994225  0.25609802  1  1.31709  0  0.670125  0.966477  0  2.368329  0
Zn  Zn14  1  0.67620499  0.52773789  0.25603133  1  1.317905  0  0.670093  0.966686  0  2.367575  0
Zn  Zn15  1  0.53989132  0.67618617  0.25612972  1  1.320594  0  0.670103  0.966409  0  2.368055  0
H  H16  1  0.92575481  0.11391871  0.63312990  1  0.068905  0  0.103021  0.112987  0  1.007563  0
H  H17  1  0.11397918  0.32703414  0.63314116  1  0.050074  0  0.102761  0.112581  0  1.008661  0
H  H18  1  0.32707701  0.92582881  0.63310213  1  0.059352  0  0.102904  0.112108  0  1.008675  0
H  H19  1  0.57416929  0.17292054  0.86690015  1  0.059399  0  0.102888  0.112093  0  1.008674  0
H  H20  1  0.38608196  0.57424648  0.86686909  1  0.069088  0  0.103009  0.113007  0  1.007563  0
H  H21  1  0.17296502  0.38602000  0.86685940  1  0.050079  0  0.102744  0.112557  0  1.008682  0
H  H22  1  0.07424554  0.88608242  0.36686969  1  0.069067  0  0.103015  0.112975  0  1.007568  0
H  H23  1  0.88602116  0.67296552  0.36685823  1  0.050075  0  0.10277  0.112601  0  1.008636  0
H  H24  1  0.67292175  0.07416851  0.36690113  1  0.059407  0  0.102887  0.112103  0  1.008648  0
H  H25  1  0.42582894  0.82707747  0.13310228  1  0.059397  0  0.102877  0.112057  0  1.008714  0
H  H26  1  0.61391679  0.42575525  0.13313051  1  0.069058  0  0.10301  0.113006  0  1.007538  0
H  H27  1  0.82703374  0.61397977  0.13314136  1  0.049999  0  0.102742  0.112528  0  1.008719  0
H  H28  1  0.90463072  0.30925904  0.63904751  1  0.090259  0  0.102611  0.112723  0  1.005584  0
H  H29  1  0.30935681  0.14687982  0.63912851  1  0.086452  0  0.102575  0.112304  0  1.006113  0
H  H30  1  0.14691455  0.90470666  0.63911919  1  0.107382  0  0.102527  0.112876  0  1.006731  0
H  H31  1  0.59529036  0.35308402  0.86088196  1  0.107407  0  0.102539  0.112909  0  1.006774  0
H  H32  1  0.19074164  0.59536682  0.86095413  1  0.09039  0  0.102611  0.112715  0  1.005495  0
H  H33  1  0.35312126  0.19064356  0.86087119  1  0.086432  0  0.102568  0.112313  0  1.006093  0
H  H34  1  0.09536698  0.69074211  0.36095428  1  0.09036  0  0.102644  0.112769  0  1.005552  0
H  H35  1  0.69064353  0.85312033  0.36087031  1  0.086439  0  0.102573  0.112305  0  1.006116  0
H  H36  1  0.85308420  0.09529115  0.36088233  1  0.10738  0  0.102538  0.112886  0  1.006792  0
H  H37  1  0.40470786  0.64691546  0.13911795  1  0.107403  0  0.102545  0.112927  0  1.006701  0
H  H38  1  0.80925712  0.40463197  0.13904739  1  0.090246  0  0.102622  0.112721  0  1.005541  0
H  H39  1  0.64687961  0.80935590  0.13912769  1  0.086422  0  0.102559  0.11228  0  1.006157  0
H  H40  1  0.82695577  0.39804930  0.35585699  1  0.073406  0  0.102562  0.111179  0  1.007338  0
H  H41  1  0.39807172  0.41905264  0.35594544  1  0.106726  0  0.102827  0.111834  0  1.006895  0
H  H42  1  0.41907789  0.82687799  0.35592317  1  0.067982  0  0.10298  0.111984  0  1.007446  0
H  H43  1  0.67312486  0.08092078  0.14407679  1  0.068018  0  0.102924  0.111931  0  1.007371  0
H  H44  1  0.10195137  0.67304527  0.14414291  1  0.073373  0  0.102546  0.111164  0  1.007279  0
H  H45  1  0.08094957  0.10192663  0.14405501  1  0.106811  0  0.102802  0.111774  0  1.006862  0
H  H46  1  0.17304352  0.60195223  0.64414325  1  0.073406  0  0.102558  0.111156  0  1.007369  0
H  H47  1  0.60192598  0.58094949  0.64405442  1  0.106828  0  0.102813  0.111771  0  1.006934  0
H  H48  1  0.58092139  0.17312648  0.64407631  1  0.067932  0  0.102897  0.111919  0  1.007479  0
H  H49  1  0.32687813  0.91907788  0.85592313  1  0.067961  0  0.102992  0.111981  0  1.007454  0
H  H50  1  0.89804898  0.32695586  0.85585669  1  0.07336  0  0.102559  0.111178  0  1.007353  0
H  H51  1  0.91905237  0.89807243  0.85594516  1  0.106778  0  0.102806  0.111805  0  1.006905  0
H  H52  1  0.63600017  0.39736628  0.50049425  1  0.121437  0  0.105095  0.117629  0  1.015971  0
H  H53  1  0.39728374  0.46613502  0.50053135  1  0.082819  0  0.10503  0.117421  0  1.016361  0
H  H54  1  0.46613678  0.63599040  0.50060384  1  0.08523  0  0.104984  0.11708  0  1.016551  0
H  H55  1  0.86401236  0.03386602  0.99939219  1  0.085171  0  0.104996  0.117092  0  1.01655  0
H  H56  1  0.10263368  0.86400089  0.99950400  1  0.121418  0  0.105087  0.117602  0  1.015941  0
H  H57  1  0.03386521  0.10271424  0.99947119  1  0.082811  0  0.105035  0.117411  0  1.016388  0
H  H58  1  0.36400123  0.60263395  0.49950451  1  0.121428  0  0.1051  0.117639  0  1.015893  0
H  H59  1  0.60271502  0.53386475  0.49946940  1  0.082727  0  0.105016  0.1174  0  1.016373  0
H  H60  1  0.53386621  0.36401169  0.49939280  1  0.085184  0  0.104992  0.117097  0  1.016542  0
H  H61  1  0.13598957  0.96613499  0.00060450  1  0.08524  0  0.104984  0.117091  0  1.016503  0
H  H62  1  0.89736719  0.13599955  0.00049450  1  0.121419  0  0.105085  0.117601  0  1.016004  0
H  H63  1  0.96613460  0.89728316  0.00053085  1  0.082676  0  0.105028  0.117413  0  1.016393  0
H  H64  1  0.93644980  0.34554471  0.44131775  1  0.026312  0  0.092327  0.128136  0  1.002137  0
H  H65  1  0.34559934  0.27655555  0.44147684  1  0.062363  0  0.092342  0.128162  0  1.004039  0
H  H66  1  0.27659263  0.93644505  0.44136740  1  0.056364  0  0.092526  0.128262  0  1.003614  0
H  H67  1  0.56355527  0.22340693  0.05863322  1  0.056366  0  0.092529  0.128266  0  1.003602  0
H  H68  1  0.15445756  0.56355033  0.05868225  1  0.026339  0  0.092333  0.128159  0  1.00216  0
H  H69  1  0.22344691  0.15439940  0.05852296  1  0.062353  0  0.092381  0.128219  0  1.003988  0
H  H70  1  0.06354895  0.65445800  0.55868185  1  0.026319  0  0.092313  0.128128  0  1.00215  0
H  H71  1  0.65439941  0.72344569  0.55852450  1  0.062403  0  0.092372  0.128188  0  1.003955  0
H  H72  1  0.72340824  0.06355588  0.55863401  1  0.056322  0  0.092521  0.128258  0  1.003562  0
H  H73  1  0.43644560  0.77659204  0.94136663  1  0.056355  0  0.092538  0.128264  0  1.003583  0
H  H74  1  0.84554384  0.43644991  0.94131728  1  0.026307  0  0.092325  0.12814  0  1.002205  0
H  H75  1  0.77655450  0.84559986  0.94147656  1  0.062403  0  0.092406  0.12824  0  1.003975  0
H  H76  1  0.93882334  0.33807776  0.37439031  1  0.031051  0  0.09223  0.128013  0  0.996565  0
H  H77  1  0.33814208  0.34856259  0.37451394  1  0.03259  0  0.092268  0.127971  0  0.996585  0
H  H78  1  0.34862225  0.93878576  0.37442043  1  0.031461  0  0.092485  0.128095  0  0.996965  0
H  H79  1  0.56121572  0.15137632  0.12558090  1  0.031394  0  0.092459  0.128098  0  0.997024  0
H  H80  1  0.16192286  0.56117826  0.12560937  1  0.031074  0  0.092227  0.128005  0  0.996562  0
H  H81  1  0.15143935  0.16185881  0.12548601  1  0.032611  0  0.092263  0.127993  0  0.996545  0
H  H82  1  0.06117700  0.66192288  0.62560909  1  0.031066  0  0.092224  0.128022  0  0.996576  0
H  H83  1  0.66185985  0.65143696  0.62548565  1  0.032605  0  0.092256  0.127972  0  0.996585  0
H  H84  1  0.65137757  0.06121655  0.62558047  1  0.031387  0  0.092443  0.128035  0  0.997096  0
H  H85  1  0.43878568  0.84862245  0.87442037  1  0.031427  0  0.092475  0.128081  0  0.996993  0
H  H86  1  0.83807802  0.43882316  0.87438991  1  0.031041  0  0.092219  0.128011  0  0.996582  0
H  H87  1  0.84856205  0.83814241  0.87451314  1  0.03257  0  0.092262  0.127972  0  0.996528  0
H  H88  1  0.94789450  0.26378653  0.43983126  1  0.041885  0  0.092634  0.128779  0  1.001683  0
H  H89  1  0.26383483  0.34836530  0.43995832  1  0.03473  0  0.092828  0.128993  0  1.002101  0
H  H90  1  0.34842181  0.94786640  0.43982617  1  0.04335  0  0.092498  0.128004  0  1.000628  0
H  H91  1  0.55213446  0.15157694  0.06017494  1  0.043385  0  0.092514  0.128043  0  1.000601  0
H  H92  1  0.23621541  0.55210551  0.06017008  1  0.041665  0  0.092634  0.128759  0  1.001644  0
H  H93  1  0.15163653  0.23616462  0.06004069  1  0.034766  0  0.092824  0.129016  0  1.001999  0
H  H94  1  0.05210373  0.73621638  0.56017002  1  0.041829  0  0.092643  0.12877  0  1.001627  0
H  H95  1  0.73616551  0.65163484  0.56004089  1  0.034747  0  0.092821  0.129  0  1.002011  0
H  H96  1  0.65157854  0.05213522  0.56017440  1  0.043446  0  0.092525  0.12806  0  1.000589  0
H  H97  1  0.44786747  0.84842114  0.93982640  1  0.043251  0  0.092472  0.127978  0  1.000636  0
H  H98  1  0.76378494  0.44789464  0.93983029  1  0.041675  0  0.092639  0.128764  0  1.001641  0
H  H99  1  0.84836488  0.76383513  0.93995748  1  0.034751  0  0.092774  0.128933  0  1.002109  0
H  H100  1  0.70544009  0.26489026  0.61240110  1  0.035884  0  0.093015  0.131233  0  0.994919  0
H  H101  1  0.26487747  0.41723708  0.61249720  1  0.050194  0  0.092899  0.130515  0  0.995258  0
H  H102  1  0.41729770  0.70539149  0.61249383  1  0.038558  0  0.092556  0.130019  0  0.996264  0
H  H103  1  0.79461014  0.08270432  0.88750490  1  0.038834  0  0.092555  0.130042  0  0.99631  0
H  H104  1  0.23510911  0.79456060  0.88759712  1  0.035908  0  0.092992  0.131185  0  0.994903  0
H  H105  1  0.08276214  0.23512143  0.88750577  1  0.049905  0  0.092913  0.130533  0  0.995231  0
H  H106  1  0.29456078  0.73510969  0.38759681  1  0.035889  0  0.092998  0.131214  0  0.994892  0
H  H107  1  0.73512234  0.58276130  0.38750485  1  0.050245  0  0.092888  0.130494  0  0.99527  0
H  H108  1  0.58270530  0.29460913  0.38750532  1  0.03839  0  0.092595  0.130104  0  0.996311  0
H  H109  1  0.20539127  0.91729641  0.11249405  1  0.038456  0  0.092552  0.130018  0  0.996332  0
H  H110  1  0.76488964  0.20543966  0.11240306  1  0.035857  0  0.092976  0.13117  0  0.994935  0
H  H111  1  0.91723715  0.76487765  0.11249698  1  0.05018  0  0.092883  0.130496  0  0.995275  0
H  H112  1  0.63656534  0.35032538  0.60246062  1  0.052323  0  0.088677  0.132096  0  1.02104  0
H  H113  1  0.35033225  0.41057965  0.60250574  1  0.039418  0  0.088324  0.13109  0  1.021056  0
H  H114  1  0.41062355  0.63658910  0.60251566  1  0.076742  0  0.089051  0.132106  0  1.021556  0
H  H115  1  0.86341225  0.08937862  0.89748311  1  0.076555  0  0.08908  0.132147  0  1.021531  0
H  H116  1  0.14967336  0.86343502  0.89753798  1  0.05231  0  0.088668  0.132052  0  1.021079  0
H  H117  1  0.08941840  0.14966758  0.89749577  1  0.039277  0  0.088303  0.13105  0  1.021075  0
H  H118  1  0.36343553  0.64967457  0.39753807  1  0.052291  0  0.088661  0.132041  0  1.021086  0
H  H119  1  0.64966862  0.58941785  0.39749469  1  0.039314  0  0.088326  0.131056  0  1.021095  0
H  H120  1  0.58937891  0.36341122  0.39748264  1  0.076773  0  0.089066  0.132112  0  1.021555  0
H  H121  1  0.13658968  0.91062191  0.10251572  1  0.076763  0  0.089059  0.132121  0  1.021545  0
H  H122  1  0.85032540  0.13656474  0.10246160  1  0.052312  0  0.088665  0.13205  0  1.021087  0
H  H123  1  0.91058036  0.85033170  0.10250479  1  0.03929  0  0.08833  0.131091  0  1.021015  0
H  H124  1  0.71086144  0.33460394  0.62094967  1  0.039917  0  0.09378  0.132602  0  0.999923  0
H  H125  1  0.33460049  0.33351871  0.62100543  1  0.050444  0  0.093181  0.131175  0  0.999091  0
H  H126  1  0.33357369  0.71094703  0.62098076  1  0.052754  0  0.093167  0.131238  0  0.999912  0
H  H127  1  0.78905379  0.16642827  0.87901793  1  0.052678  0  0.093183  0.13126  0  0.999932  0
H  H128  1  0.16539481  0.78913885  0.87904933  1  0.039934  0  0.093801  0.132607  0  0.999857  0
H  H129  1  0.16648002  0.16539883  0.87899523  1  0.050488  0  0.093159  0.131132  0  0.999088  0
H  H130  1  0.28913943  0.66539502  0.37904940  1  0.03969  0  0.09378  0.13257  0  0.999882  0
H  H131  1  0.66540038  0.66647928  0.37899442  1  0.050509  0  0.093168  0.131109  0  0.999068  0
H  H132  1  0.66642877  0.28905329  0.37901794  1  0.052686  0  0.093163  0.131218  0  0.999852  0
H  H133  1  0.21094761  0.83357197  0.12098122  1  0.052732  0  0.093182  0.131244  0  0.999835  0
H  H134  1  0.83460448  0.21086120  0.12095071  1  0.039636  0  0.093775  0.132567  0  0.999901  0
H  H135  1  0.83351926  0.83460025  0.12100442  1  0.050471  0  0.093203  0.131201  0  0.999071  0
H  H136  1  0.80070905  0.18700639  0.55368691  1  0.047772  0  0.09285  0.127849  0  1.015997  0
H  H137  1  0.18702520  0.45849220  0.55374766  1  0.02975  0  0.092243  0.126743  0  1.016325  0
H  H138  1  0.45852093  0.80074610  0.55369433  1  0.044318  0  0.09255  0.126966  0  1.016219  0
H  H139  1  0.69925478  0.04147890  0.94630749  1  0.044412  0  0.092547  0.126939  0  1.016277  0
H  H140  1  0.31299580  0.69929085  0.94631205  1  0.047756  0  0.092861  0.127829  0  1.016033  0
H  H141  1  0.04150721  0.31297385  0.94625325  1  0.029739  0  0.09223  0.126703  0  1.016358  0
H  H142  1  0.19929129  0.81299326  0.44631443  1  0.047795  0  0.092837  0.12781  0  1.016018  0
H  H143  1  0.81297567  0.54150725  0.44625277  1  0.029772  0  0.092252  0.126739  0  1.016322  0
H  H144  1  0.54147941  0.19925405  0.44630837  1  0.04444  0  0.092566  0.126952  0  1.016257  0
H  H145  1  0.30074662  0.95852085  0.05369418  1  0.044469  0  0.092555  0.126964  0  1.016261  0
H  H146  1  0.68700507  0.30070910  0.05368741  1  0.047774  0  0.092847  0.127809  0  1.01602  0
H  H147  1  0.95849154  0.68702739  0.05374732  1  0.029934  0  0.092207  0.126672  0  1.016383  0
H  H148  1  0.87819453  0.11204027  0.56852355  1  0.046719  0  0.09196  0.128263  0  0.994781  0
H  H149  1  0.11206004  0.44117971  0.56856736  1  0.033786  0  0.09202  0.12809  0  0.995016  0
H  H150  1  0.44117169  0.87823566  0.56849420  1  0.030995  0  0.09179  0.127448  0  0.996633  0
H  H151  1  0.62176767  0.05882541  0.93150541  1  0.031106  0  0.091818  0.127496  0  0.996604  0
H  H152  1  0.38796088  0.62180425  0.93147740  1  0.046768  0  0.09194  0.12825  0  0.994758  0
H  H153  1  0.05882055  0.38793780  0.93143408  1  0.033876  0  0.09199  0.128048  0  0.995017  0
H  H154  1  0.12180528  0.88796008  0.43147734  1  0.046719  0  0.091946  0.128238  0  0.994751  0
H  H155  1  0.88793924  0.55882035  0.43143424  1  0.033835  0  0.092011  0.128062  0  0.99501  0
H  H156  1  0.55882653  0.12176578  0.43150650  1  0.031152  0  0.091805  0.127444  0  0.996628  0
H  H157  1  0.37823638  0.94117284  0.06849308  1  0.031204  0  0.09179  0.127443  0  0.996651  0
H  H158  1  0.61203841  0.37819630  0.06852245  1  0.046801  0  0.091942  0.128225  0  0.994712  0
H  H159  1  0.94118032  0.61206214  0.06856655  1  0.033823  0  0.091975  0.128039  0  0.995023  0
H  H160  1  0.88278361  0.17912110  0.49810339  1  0.02763  0  0.09194  0.127357  0  1.005342  0
H  H161  1  0.17913001  0.43995627  0.49815034  1  0.010216  0  0.091844  0.126872  0  1.005392  0
H  H162  1  0.43993442  0.88280593  0.49809073  1  0.041628  0  0.09205  0.1267  0  1.004973  0
H  H163  1  0.61719320  0.06006501  0.00190923  1  0.041572  0  0.092065  0.126733  0  1.004952  0
H  H164  1  0.32087845  0.61721782  0.00189677  1  0.027635  0  0.091929  0.127333  0  1.005341  0
H  H165  1  0.06004414  0.32086780  0.00185066  1  0.010531  0  0.091815  0.126863  0  1.005399  0
H  H166  1  0.11721620  0.82087876  0.50189730  1  0.02761  0  0.091925  0.127303  0  1.005373  0
H  H167  1  0.82086875  0.56004350  0.50185119  1  0.010171  0  0.091819  0.126849  0  1.00539  0
H  H168  1  0.56006486  0.11719266  0.50191067  1  0.04159  0  0.092052  0.126715  0  1.004939  0
H  H169  1  0.38280662  0.93993436  0.99808971  1  0.041612  0  0.092047  0.126712  0  1.004933  0
H  H170  1  0.67912084  0.38278322  0.99810250  1  0.027605  0  0.091948  0.127323  0  1.005317  0
H  H171  1  0.93995673  0.67913117  0.99814958  1  0.010549  0  0.091825  0.126884  0  1.005346  0
H  H172  1  0.85544777  0.41845409  0.50565924  1  0.039374  0  0.090518  0.123493  0  1.020693  0
H  H173  1  0.41852433  0.22042856  0.50572704  1  0.012447  0  0.090566  0.123842  0  1.021146  0
H  H174  1  0.22045200  0.85545913  0.50567286  1  0.049452  0  0.090368  0.123403  0  1.021292  0
H  H175  1  0.64453868  0.27954901  0.99432778  1  0.049469  0  0.090374  0.12343  0  1.021305  0
H  H176  1  0.08154572  0.64455225  0.99434139  1  0.039502  0  0.090523  0.123522  0  1.020699  0
H  H177  1  0.27957330  0.08147460  0.99427174  1  0.012495  0  0.090566  0.12385  0  1.021092  0
H  H178  1  0.14455098  0.58154666  0.49434152  1  0.039518  0  0.090517  0.123526  0  1.020717  0
H  H179  1  0.58147495  0.77957199  0.49427203  1  0.012514  0  0.090583  0.123876  0  1.021055  0
H  H180  1  0.77954834  0.14453905  0.49432827  1  0.049458  0  0.090385  0.123421  0  1.021309  0
H  H181  1  0.35546113  0.72045232  0.00567078  1  0.049436  0  0.090412  0.12347  0  1.021179  0
H  H182  1  0.91845303  0.35544899  0.00565956  1  0.039387  0  0.090522  0.123515  0  1.020714  0
H  H183  1  0.72042704  0.91852408  0.00572687  1  0.01244  0  0.090556  0.123825  0  1.021129  0
H  H184  1  0.84599454  0.41983239  0.57753369  1  0.027028  0  0.091268  0.126762  0  0.9955  0
H  H185  1  0.41995858  0.15654759  0.57758576  1  0.046118  0  0.091829  0.127974  0  0.996312  0
H  H186  1  0.15655561  0.84604967  0.57751433  1  0.030386  0  0.091746  0.127196  0  0.996159  0
H  H187  1  0.65394759  0.34344412  0.92248665  1  0.03041  0  0.091747  0.127197  0  0.996085  0
H  H188  1  0.08016766  0.65400448  0.92246686  1  0.026974  0  0.091255  0.126764  0  0.995508  0
H  H189  1  0.34345201  0.08004111  0.92241244  1  0.04613  0  0.091811  0.127924  0  0.996343  0
H  H190  1  0.15400422  0.58016836  0.42246707  1  0.026962  0  0.091263  0.126797  0  0.995503  0
H  H191  1  0.58004070  0.84345197  0.42241175  1  0.046142  0  0.09182  0.12794  0  0.996306  0
H  H192  1  0.84344420  0.15394774  0.42248655  1  0.030397  0  0.091746  0.127181  0  0.996152  0
H  H193  1  0.34605169  0.65655692  0.07751184  1  0.030273  0  0.091738  0.127171  0  0.996128  0
H  H194  1  0.91983162  0.34599509  0.07753454  1  0.026997  0  0.091238  0.126743  0  0.995522  0
H  H195  1  0.65654728  0.91995846  0.07758585  1  0.046087  0  0.091825  0.127983  0  0.996321  0
H  H196  1  0.77445819  0.42417715  0.56247753  1  0.035471  0  0.094124  0.133118  0  1.003347  0
H  H197  1  0.42412850  0.23887656  0.56258661  1  0.031795  0  0.093766  0.133123  0  1.00121  0
H  H198  1  0.23887075  0.77449225  0.56252957  1  0.04048  0  0.093786  0.132957  0  1.001996  0
H  H199  1  0.72550498  0.26112919  0.93747171  1  0.040556  0  0.093796  0.132953  0  1.002033  0
H  H200  1  0.07582403  0.72554054  0.93752192  1  0.035498  0  0.094115  0.133105  0  1.003396  0
H  H201  1  0.26112219  0.07587186  0.93741323  1  0.031762  0  0.093784  0.133154  0  1.001298  0
H  H202  1  0.22554056  0.57582409  0.43752226  1  0.035505  0  0.094099  0.133092  0  1.003353  0
H  H203  1  0.57587131  0.76112183  0.43741272  1  0.031717  0  0.09376  0.133113  0  1.001333  0
H  H204  1  0.76113012  0.22550573  0.43747144  1  0.040545  0  0.093789  0.132955  0  1.002012  0
H  H205  1  0.27449484  0.73887116  0.06252762  1  0.040532  0  0.093778  0.13291  0  1.002055  0
H  H206  1  0.92417526  0.27446001  0.06247793  1  0.035462  0  0.094101  0.133087  0  1.003389  0
H  H207  1  0.73887656  0.92412791  0.06258597  1  0.031827  0  0.093782  0.133154  0  1.001226  0
C  C208  1  0.84629713  0.28283965  0.55280716  1  -0.0702  0  -0.002476  -0.025303  0  3.904893  0
C  C209  1  0.28286818  0.31795655  0.55287450  1  -0.062626  0  -0.002264  -0.025271  0  3.905993  0
C  C210  1  0.31798200  0.84633735  0.55283485  1  -0.036152  0  -0.001695  -0.024936  0  3.907892  0
C  C211  1  0.65365926  0.18201728  0.94716655  1  -0.036135  0  -0.001669  -0.024951  0  3.90771  0
C  C212  1  0.21716283  0.65370003  0.94719237  1  -0.070306  0  -0.002414  -0.025255  0  3.904695  0
C  C213  1  0.18204410  0.21713036  0.94712454  1  -0.062847  0  -0.002218  -0.025196  0  3.905908  0
C  C214  1  0.15370268  0.71716216  0.44719199  1  -0.070014  0  -0.0024  -0.025151  0  3.904676  0
C  C215  1  0.71713110  0.68204448  0.44712438  1  -0.062889  0  -0.002215  -0.025226  0  3.905888  0
C  C216  1  0.68201888  0.15365966  0.44716732  1  -0.036397  0  -0.00169  -0.025051  0  3.907804  0
C  C217  1  0.34634161  0.81798120  0.05283310  1  -0.036276  0  -0.00167  -0.024984  0  3.907788  0
C  C218  1  0.78283752  0.34629963  0.05280664  1  -0.07029  0  -0.002413  -0.025282  0  3.90481  0
C  C219  1  0.81795571  0.78286851  0.05287459  1  -0.062805  0  -0.002213  -0.025208  0  3.905963  0
C  C220  1  0.91861947  0.20780836  0.64070405  1  -0.054005  0  -0.025418  -0.037792  0  4.037309  0
C  C221  1  0.20787543  0.23269432  0.64072535  1  -0.013656  0  -0.02664  -0.039118  0  4.038408  0
C  C222  1  0.23273440  0.91869520  0.64070961  1  -0.053523  0  -0.025645  -0.037971  0  4.037073  0
C  C223  1  0.58129909  0.26726546  0.85929210  1  -0.053452  0  -0.025775  -0.038281  0  4.037062  0
C  C224  1  0.29219263  0.58137978  0.85929640  1  -0.053838  0  -0.025393  -0.037821  0  4.037258  0
C  C225  1  0.26730625  0.29212458  0.85927626  1  -0.013453  0  -0.026665  -0.039151  0  4.038516  0
C  C226  1  0.08137664  0.79219388  0.35929755  1  -0.053885  0  -0.025446  -0.037826  0  4.037206  0
C  C227  1  0.79212386  0.76730378  0.35927546  1  -0.013608  0  -0.026663  -0.039099  0  4.03835  0
C  C228  1  0.76726595  0.08130054  0.35929210  1  -0.053426  0  -0.025699  -0.038143  0  4.037114  0
C  C229  1  0.41869807  0.73273491  0.14070788  1  -0.053637  0  -0.02565  -0.038069  0  4.037071  0
C  C230  1  0.70780560  0.41862313  0.14070294  1  -0.053895  0  -0.025396  -0.037726  0  4.037143  0
C  C231  1  0.73269409  0.70787606  0.14072237  1  -0.013657  0  -0.026676  -0.039156  0  4.038354  0
C  C232  1  0.80566322  0.32304937  0.50755511  1  0.038661  0  -0.000379  -0.024046  0  3.9026  0
C  C233  1  0.32306184  0.36364868  0.50764416  1  -0.000733  0  -0.000999  -0.02458  0  3.902771  0
C  C234  1  0.36371232  0.80567048  0.50759997  1  -0.041317  0  -0.000588  -0.022972  0  3.903057  0
C  C235  1  0.69433041  0.13628605  0.99240050  1  -0.041288  0  -0.000605  -0.022961  0  3.902977  0
C  C236  1  0.17695127  0.69433821  0.99244503  1  0.038372  0  -0.000315  -0.023645  0  3.902825  0
C  C237  1  0.13635059  0.17693780  0.99235694  1  -0.001018  0  -0.00097  -0.024595  0  3.902584  0
C  C238  1  0.19433766  0.67695107  0.49244494  1  0.038321  0  -0.000336  -0.023995  0  3.902642  0
C  C239  1  0.67693850  0.63635049  0.49235659  1  -0.000582  0  -0.001002  -0.024604  0  3.902468  0
C  C240  1  0.63628803  0.19433065  0.49240158  1  -0.041175  0  -0.000631  -0.022982  0  3.903118  0
C  C241  1  0.30567100  0.86371223  0.00759864  1  -0.041102  0  -0.000601  -0.02296  0  3.902938  0
C  C242  1  0.82304855  0.30566311  0.00755470  1  0.038338  0  -0.000377  -0.024049  0  3.902716  0
C  C243  1  0.86365082  0.82305999  0.00764278  1  -0.000563  0  -0.000982  -0.024644  0  3.90276  0
C  C244  1  0.87058668  0.20827599  0.57284052  1  0.040159  0  -0.009071  0.123503  0  3.972792  0
C  C245  1  0.20830097  0.34818425  0.57286544  1  -0.006085  0  -0.009387  0.122261  0  3.976222  0
C  C246  1  0.34820073  0.87066733  0.57282966  1  0.01628  0  -0.00953  0.120949  0  3.976132  0
C  C247  1  0.62933069  0.15179994  0.92717142  1  0.016252  0  -0.009511  0.120977  0  3.976191  0
C  C248  1  0.29172501  0.62941152  0.92716072  1  0.04057  0  -0.009039  0.123652  0  3.97265  0
C  C249  1  0.15181592  0.29169724  0.92713394  1  -0.006013  0  -0.009428  0.122189  0  3.976233  0
C  C250  1  0.12941207  0.79172623  0.42716083  1  0.070457  0  -0.00905  0.123475  0  3.972727  0
C  C251  1  0.79169884  0.65181512  0.42713428  1  -0.006067  0  -0.009401  0.122239  0  3.976333  0
C  C252  1  0.65180014  0.12933066  0.42717174  1  0.016295  0  -0.009534  0.120966  0  3.976065  0
C  C253  1  0.37067071  0.84819932  0.07282850  1  0.016275  0  -0.009503  0.121046  0  3.97609  0
C  C254  1  0.70827427  0.37058854  0.07283854  1  0.070412  0  -0.009038  0.123591  0  3.972727  0
C  C255  1  0.84818337  0.70830184  0.07286571  1  -0.00628  0  -0.009413  0.122247  0  3.976162  0
C  C256  1  0.90659605  0.17152341  0.61679676  1  -0.024791  0  -0.091362  -0.166702  0  3.962761  0
C  C257  1  0.17158627  0.30491218  0.61679890  1  0.012008  0  -0.090921  -0.165743  0  3.965134  0
C  C258  1  0.30494099  0.90670562  0.61677424  1  -0.006537  0  -0.09088  -0.163869  0  3.962406  0
C  C259  1  0.59329191  0.19505736  0.88322794  1  -0.006668  0  -0.090852  -0.163765  0  3.962386  0
C  C260  1  0.32847843  0.59340284  0.88320389  1  -0.025582  0  -0.091428  -0.166864  0  3.962747  0
C  C261  1  0.19508755  0.32841410  0.88320135  1  0.012003  0  -0.090886  -0.165666  0  3.96517  0
C  C262  1  0.09340111  0.82847892  0.38320439  1  -0.055867  0  -0.091344  -0.166689  0  3.96264  0
C  C263  1  0.82841355  0.69508719  0.38320159  1  0.011976  0  -0.090935  -0.165793  0  3.965221  0
C  C264  1  0.69505777  0.09329169  0.38322824  1  -0.006642  0  -0.090906  -0.163863  0  3.962287  0
C  C265  1  0.40670844  0.80494132  0.11677223  1  -0.006593  0  -0.090897  -0.163846  0  3.962456  0
C  C266  1  0.67152138  0.40659947  0.11679584  1  -0.055859  0  -0.091411  -0.166865  0  3.962699  0
C  C267  1  0.80491279  0.67158458  0.11679882  1  0.012245  0  -0.090884  -0.165658  0  3.965097  0
C  C268  1  0.89462834  0.28177589  0.62016474  1  -0.080831  0  -0.089825  -0.163624  0  3.961184  0
C  C269  1  0.28185338  0.20325962  0.62021280  1  -0.054933  0  -0.089544  -0.162524  0  3.959642  0
C  C270  1  0.20330270  0.89470684  0.62017452  1  -0.039946  0  -0.090126  -0.164229  0  3.96181  0
C  C271  1  0.60528972  0.29669781  0.87982759  1  -0.039652  0  -0.090147  -0.164314  0  3.961835  0
C  C272  1  0.21822545  0.60536870  0.87983761  1  -0.081096  0  -0.089882  -0.163661  0  3.961117  0
C  C273  1  0.29674092  0.21814746  0.87978616  1  -0.053819  0  -0.0895  -0.162518  0  3.959542  0
C  C274  1  0.10536936  0.71822526  0.37983705  1  -0.080907  0  -0.089914  -0.163735  0  3.961049  0
C  C275  1  0.71814643  0.79674073  0.37978537  1  -0.05363  0  -0.089536  -0.162518  0  3.959533  0
C  C276  1  0.79669764  0.10529135  0.37982662  1  -0.039608  0  -0.090114  -0.164239  0  3.96178  0
C  C277  1  0.39470903  0.70330196  0.12017199  1  -0.039596  0  -0.090167  -0.164352  0  3.961834  0
C  C278  1  0.78177384  0.39463136  0.12016321  1  -0.080814  0  -0.089894  -0.163728  0  3.961041  0
C  C279  1  0.70325889  0.78185240  0.12021298  1  -0.053648  0  -0.089512  -0.16246  0  3.959608  0
C  C280  1  0.85836889  0.32006971  0.57629708  1  0.065635  0  -0.008238  0.120795  0  3.977688  0
C  C281  1  0.32010766  0.24513433  0.57637947  1  0.036184  0  -0.008809  0.120566  0  3.978516  0
C  C282  1  0.24516564  0.85842039  0.57633353  1  -0.019913  0  -0.00876  0.120056  0  3.98146  0
C  C283  1  0.64157503  0.25483533  0.92366846  1  -0.020144  0  -0.008705  0.120241  0  3.981266  0
C  C284  1  0.17993261  0.64162810  0.92370414  1  0.065913  0  -0.008225  0.120819  0  3.977672  0
C  C285  1  0.25486526  0.17989277  0.92361924  1  0.035033  0  -0.008794  0.120596  0  3.978331  0
C  C286  1  0.14162986  0.67993153  0.42370310  1  0.065727  0  -0.008225  0.120777  0  3.97765  0
C  C287  1  0.67989268  0.75486532  0.42361877  1  0.035069  0  -0.00882  0.120553  0  3.978398  0
C  C288  1  0.75483471  0.14157682  0.42366838  1  -0.020167  0  -0.008727  0.120266  0  3.98136  0
C  C289  1  0.35842373  0.74516444  0.07633230  1  -0.020188  0  -0.008746  0.120178  0  3.981416  0
C  C290  1  0.82006668  0.35837245  0.07629688  1  0.06595  0  -0.008189  0.120914  0  3.977612  0
C  C291  1  0.74513456  0.82010610  0.07638067  1  0.035019  0  -0.00884  0.120517  0  3.978442  0
C  C292  1  0.95774025  0.16781906  0.68728380  1  1.552992  0  0.226706  0.611247  0  4.156959  0
C  C293  1  0.16784941  0.18702771  0.68734039  1  1.555302  0  0.226303  0.610623  0  4.154921  0
C  C294  1  0.18704701  0.95768674  0.68737916  1  1.557202  0  0.225258  0.607738  0  4.16071  0
C  C295  1  0.54230885  0.31295196  0.81262278  1  1.557219  0  0.225391  0.608199  0  4.160525  0
C  C296  1  0.33218237  0.54226065  0.81271545  1  1.553213  0  0.226716  0.611319  0  4.157007  0
C  C297  1  0.31297511  0.33214932  0.81265812  1  1.555404  0  0.226206  0.610517  0  4.154802  0
C  C298  1  0.04225903  0.83218100  0.31271702  1  1.553112  0  0.226808  0.61146  0  4.157006  0
C  C299  1  0.83215040  0.81297215  0.31265875  1  1.55534  0  0.226278  0.610635  0  4.154831  0
C  C300  1  0.81295175  0.04231009  0.31262352  1  1.55702  0  0.22528  0.607892  0  4.160663  0
C  C301  1  0.45768673  0.68704705  0.18737951  1  1.557047  0  0.225351  0.608009  0  4.160527  0
C  C302  1  0.66781586  0.45774226  0.18728390  1  1.553204  0  0.226675  0.611261  0  4.157195  0
C  C303  1  0.68702682  0.66784876  0.18734011  1  1.555365  0  0.226273  0.610598  0  4.15494  0
C  C304  1  0.72763207  0.40145592  0.42388709  1  -0.104448  0  -0.026336  -0.042721  0  4.041988  0
C  C305  1  0.40142731  0.44697619  0.42394465  1  -0.021201  0  -0.026983  -0.044736  0  4.044693  0
C  C306  1  0.44697910  0.72757749  0.42397147  1  -0.02378  0  -0.026143  -0.043244  0  4.043301  0
C  C307  1  0.77242255  0.05302320  0.07602661  1  -0.023705  0  -0.026137  -0.043206  0  4.043271  0
C  C308  1  0.09854508  0.77236975  0.07611043  1  -0.104283  0  -0.026396  -0.042685  0  4.042029  0
C  C309  1  0.05302443  0.09857182  0.07605767  1  -0.021227  0  -0.026956  -0.044819  0  4.044819  0
C  C310  1  0.27236827  0.59854619  0.57611096  1  -0.104188  0  -0.026362  -0.042629  0  4.042102  0
C  C311  1  0.59857092  0.55302329  0.57605759  1  -0.021227  0  -0.026974  -0.044834  0  4.044799  0
C  C312  1  0.55302389  0.27242362  0.57602710  1  -0.023501  0  -0.026145  -0.043285  0  4.043331  0
C  C313  1  0.22757780  0.94697645  0.92397279  1  -0.023804  0  -0.026171  -0.043291  0  4.043414  0
C  C314  1  0.90145579  0.22763020  0.92388864  1  -0.104077  0  -0.026349  -0.042605  0  4.041968  0
C  C315  1  0.94697697  0.90142645  0.92394418  1  -0.02125  0  -0.026969  -0.044636  0  4.044772  0
C  C316  1  0.80122056  0.38160009  0.40407984  1  0.032026  0  -0.091074  -0.166012  0  3.965721  0
C  C317  1  0.38159715  0.41303281  0.40415341  1  -0.002256  0  -0.09074  -0.165783  0  3.965058  0
C  C318  1  0.41300791  0.80116784  0.40415215  1  -0.029218  0  -0.091302  -0.166416  0  3.96785  0
C  C319  1  0.69883385  0.08699300  0.09584583  1  -0.029023  0  -0.091214  -0.166294  0  3.967862  0
C  C320  1  0.11840116  0.69877958  0.09591940  1  0.031588  0  -0.091084  -0.165731  0  3.965839  0
C  C321  1  0.08697097  0.11840065  0.09584626  1  -0.002449  0  -0.090736  -0.165728  0  3.965139  0
C  C322  1  0.19877819  0.61840311  0.59591996  1  0.031479  0  -0.091069  -0.165983  0  3.965676  0
C  C323  1  0.61840160  0.58696941  0.59584638  1  -0.002329  0  -0.090733  -0.165676  0  3.965089  0
C  C324  1  0.58699402  0.19883416  0.59584804  1  -0.029034  0  -0.091203  -0.16629  0  3.96774  0
C  C325  1  0.30116861  0.91300634  0.90415209  1  -0.029087  0  -0.091273  -0.166354  0  3.96782  0
C  C326  1  0.88159865  0.30122027  0.90408012  1  0.031677  0  -0.09109  -0.166088  0  3.96561  0
C  C327  1  0.91303255  0.88159731  0.90415372  1  -0.002317  0  -0.090707  -0.165787  0  3.965096  0
C  C328  1  0.84099781  0.34220463  0.44535647  1  -0.029489  0  -0.010218  0.119469  0  3.97863  0
C  C329  1  0.34222982  0.37134159  0.44545688  1  -0.069584  0  -0.01014  0.11934  0  3.978303  0
C  C330  1  0.37136428  0.84096921  0.44541134  1  -0.030953  0  -0.009695  0.118415  0  3.980576  0
C  C331  1  0.65903250  0.12863489  0.05458887  1  -0.031158  0  -0.009725  0.118346  0  3.980676  0
C  C332  1  0.15779799  0.65900239  0.05464339  1  -0.029095  0  -0.010252  0.118419  0  3.980116  0
C  C333  1  0.12866217  0.15776695  0.05454437  1  -0.069567  0  -0.010117  0.119472  0  3.978286  0
C  C334  1  0.15900148  0.65779739  0.55464281  1  -0.0291  0  -0.010227  0.119407  0  3.978672  0
C  C335  1  0.65776947  0.62865994  0.55454376  1  -0.069624  0  -0.010122  0.119398  0  3.978292  0
C  C336  1  0.62863712  0.15903250  0.55458878  1  -0.030989  0  -0.009664  0.118451  0  3.980498  0
C  C337  1  0.34096890  0.87136339  0.94541143  1  -0.03099  0  -0.009707  0.1184  0  3.980565  0
C  C338  1  0.84220394  0.34099814  0.94535660  1  -0.029333  0  -0.010264  0.119432  0  3.978647  0
C  C339  1  0.87134135  0.84223004  0.94545677  1  -0.069607  0  -0.010136  0.119402  0  3.978328  0
C  C340  1  0.73154729  0.34230867  0.52805391  1  -0.069496  0  -0.006159  0.125576  0  3.964999  0
C  C341  1  0.34226593  0.39805735  0.52812439  1  -0.049765  0  -0.005601  0.12565  0  3.96521  0
C  C342  1  0.39810709  0.73156268  0.52811315  1  0.032376  0  -0.006652  0.12404  0  3.965311  0
C  C343  1  0.76843767  0.10189455  0.97188623  1  0.032575  0  -0.006651  0.12406  0  3.965215  0
C  C344  1  0.15769253  0.76845141  0.97194514  1  -0.06959  0  -0.006179  0.125478  0  3.964973  0
C  C345  1  0.10194127  0.15773243  0.97187786  1  -0.049314  0  -0.005674  0.125549  0  3.965164  0
C  C346  1  0.26845146  0.65769208  0.47194490  1  -0.069078  0  -0.006169  0.125533  0  3.964926  0
C  C347  1  0.65773442  0.60193986  0.47187597  1  -0.05013  0  -0.005652  0.125612  0  3.965114  0
C  C348  1  0.60189643  0.26843627  0.47188723  1  0.032296  0  -0.006639  0.124032  0  3.96536  0
C  C349  1  0.23156321  0.89810442  0.02811362  1  0.032267  0  -0.006655  0.123997  0  3.965234  0
C  C350  1  0.84230728  0.23154893  0.02805458  1  -0.069506  0  -0.006156  0.125558  0  3.96493  0
C  C351  1  0.89805907  0.84226380  0.02812405  1  -0.050242  0  -0.005679  0.125583  0  3.965212  0
C  C352  1  0.69332833  0.38126583  0.48562876  1  -0.03436  0  -0.085622  -0.157142  0  3.944766  0
C  C353  1  0.38120524  0.43975605  0.48568070  1  -0.022044  0  -0.085367  -0.156033  0  3.944935  0
C  C354  1  0.43977788  0.69331577  0.48570225  1  -0.037685  0  -0.085657  -0.15598  0  3.945973  0
C  C355  1  0.80668559  0.06022512  0.01429425  1  -0.037822  0  -0.085684  -0.15605  0  3.946014  0
C  C356  1  0.11873510  0.80667144  0.01437193  1  -0.03415  0  -0.085608  -0.157052  0  3.94469  0
C  C357  1  0.06024439  0.11879297  0.01432167  1  -0.022014  0  -0.085329  -0.155944  0  3.945001  0
C  C358  1  0.30667096  0.61873472  0.51437264  1  -0.034723  0  -0.085637  -0.157164  0  3.944675  0
C  C359  1  0.61879458  0.56024234  0.51432096  1  -0.021597  0  -0.085318  -0.155979  0  3.944916  0
C  C360  1  0.56022564  0.30668563  0.51429522  1  -0.037711  0  -0.085661  -0.156021  0  3.946009  0
C  C361  1  0.19331739  0.93977550  0.98570257  1  -0.037632  0  -0.085657  -0.155979  0  3.946016  0
C  C362  1  0.88126524  0.19332871  0.98562844  1  -0.034278  0  -0.08563  -0.157161  0  3.944752  0
C  C363  1  0.93975807  0.88120393  0.98567914  1  -0.021514  0  -0.085328  -0.156019  0  3.944949  0
C  C364  1  0.68491532  0.44680913  0.38023677  1  1.549455  0  0.225374  0.600559  0  4.164101  0
C  C365  1  0.44683680  0.48791573  0.38028120  1  1.534749  0  0.226394  0.603173  0  4.161487  0
C  C366  1  0.48793431  0.68486529  0.38031810  1  1.539806  0  0.22445  0.599714  0  4.165182  0
C  C367  1  0.81513874  0.01206487  0.11967962  1  1.53975  0  0.224342  0.599543  0  4.165772  0
C  C368  1  0.05319321  0.81508387  0.11976283  1  1.549216  0  0.225294  0.600401  0  4.164273  0
C  C369  1  0.01208579  0.05316060  0.11972262  1  1.53456  0  0.226441  0.603297  0  4.16139  0
C  C370  1  0.31508397  0.55319093  0.61976328  1  1.549543  0  0.225206  0.600259  0  4.164431  0
C  C371  1  0.55316142  0.51208473  0.61972104  1  1.534047  0  0.226388  0.60316  0  4.161284  0
C  C372  1  0.51206709  0.31513985  0.61967990  1  1.539764  0  0.224351  0.599647  0  4.1656  0
C  C373  1  0.18486584  0.98793221  0.88031835  1  1.539738  0  0.22444  0.599679  0  4.165276  0
C  C374  1  0.94680555  0.18491639  0.88023695  1  1.549633  0  0.225259  0.600332  0  4.164438  0
C  C375  1  0.98791244  0.94683888  0.88028157  1  1.534806  0  0.226504  0.603313  0  4.161436  0
C  C376  1  0.92008193  0.32137108  0.42392348  1  -0.06264  0  -0.23685  -0.410214  0  3.988702  0
C  C377  1  0.32142048  0.33449014  0.42404835  1  -0.084659  0  -0.23703  -0.410288  0  3.991814  0
C  C378  1  0.33453881  0.92005431  0.42394837  1  -0.07987  0  -0.237245  -0.409066  0  3.988507  0
C  C379  1  0.57994583  0.16546029  0.07605367  1  -0.079835  0  -0.237248  -0.409129  0  3.988496  0
C  C380  1  0.17862904  0.57991884  0.07607712  1  -0.062566  0  -0.236856  -0.409891  0  3.989045  0
C  C381  1  0.16551191  0.17857817  0.07595088  1  -0.084745  0  -0.237075  -0.410467  0  3.991767  0
C  C382  1  0.07991736  0.67862996  0.57607774  1  -0.062619  0  -0.236831  -0.410191  0  3.988643  0
C  C383  1  0.67857881  0.66550991  0.57595208  1  -0.08476  0  -0.237052  -0.410367  0  3.991732  0
C  C384  1  0.66546100  0.07994702  0.57605446  1  -0.079834  0  -0.237216  -0.409064  0  3.988509  0
C  C385  1  0.42005504  0.83453819  0.92394715  1  -0.079743  0  -0.237201  -0.409009  0  3.988431  0
C  C386  1  0.82137131  0.42008278  0.92392190  1  -0.062429  0  -0.236843  -0.410199  0  3.988688  0
C  C387  1  0.83448949  0.82142158  0.92404806  1  -0.084714  0  -0.237043  -0.410332  0  3.991769  0
C  C388  1  0.69397334  0.32213513  0.59438630  1  -0.054284  0  -0.239353  -0.411989  0  3.965209  0
C  C389  1  0.32211780  0.38946359  0.59444572  1  -0.067344  0  -0.238319  -0.408446  0  3.962817  0
C  C390  1  0.38952016  0.69398913  0.59444747  1  -0.1035  0  -0.238624  -0.40877  0  3.964395  0
C  C391  1  0.80601256  0.11048182  0.90554970  1  -0.103575  0  -0.238687  -0.408881  0  3.964372  0
C  C392  1  0.17786343  0.80602708  0.90561506  1  -0.054249  0  -0.239346  -0.411887  0  3.96521  0
C  C393  1  0.11053520  0.17788255  0.90555452  1  -0.066909  0  -0.238296  -0.408377  0  3.962701  0
C  C394  1  0.30602806  0.67786364  0.40561458  1  -0.054017  0  -0.239349  -0.4119  0  3.965154  0
C  C395  1  0.67788307  0.61053440  0.40555529  1  -0.067291  0  -0.238275  -0.40829  0  3.962794  0
C  C396  1  0.61048124  0.30601160  0.40555149  1  -0.103301  0  -0.238672  -0.408822  0  3.964332  0
C  C397  1  0.19398937  0.88952018  0.09444699  1  -0.10336  0  -0.238618  -0.408755  0  3.964353  0
C  C398  1  0.82213479  0.19397289  0.09438544  1  -0.053962  0  -0.239306  -0.411847  0  3.965209  0
C  C399  1  0.88946408  0.82211653  0.09444475  1  -0.067149  0  -0.238297  -0.408411  0  3.962774  0
C  C400  1  0.85755430  0.16931373  0.54717235  1  -0.060307  0  -0.237828  -0.41457  0  3.989461  0
C  C401  1  0.16932800  0.42587890  0.54721657  1  -0.016724  0  -0.236494  -0.411673  0  3.990448  0
C  C402  1  0.42588648  0.85759932  0.54716173  1  -0.06939  0  -0.23701  -0.410699  0  3.990753  0
C  C403  1  0.64240233  0.07411221  0.95283752  1  -0.069576  0  -0.237026  -0.410746  0  3.990724  0
C  C404  1  0.33068800  0.64244619  0.95282733  1  -0.060349  0  -0.237805  -0.414524  0  3.989454  0
C  C405  1  0.07412207  0.33066957  0.95278430  1  -0.017127  0  -0.236408  -0.411562  0  3.990439  0
C  C406  1  0.14244604  0.83068593  0.45282822  1  -0.060034  0  -0.237794  -0.414437  0  3.989519  0
C  C407  1  0.83067235  0.57412125  0.45278419  1  -0.016761  0  -0.236456  -0.411587  0  3.990412  0
C  C408  1  0.57411333  0.14240103  0.45283915  1  -0.069653  0  -0.23702  -0.410677  0  3.990739  0
C  C409  1  0.35759907  0.92588606  0.04716200  1  -0.069728  0  -0.237015  -0.410739  0  3.990754  0
C  C410  1  0.66931287  0.35755473  0.04717175  1  -0.059976  0  -0.237827  -0.414453  0  3.989398  0
C  C411  1  0.92587827  0.66933009  0.04721626  1  -0.017258  0  -0.236387  -0.411556  0  3.990376  0
C  C412  1  0.83225347  0.39962793  0.55462073  1  -0.065056  0  -0.237286  -0.411058  0  3.982283  0
C  C413  1  0.39967489  0.21343247  0.55470360  1  -0.045596  0  -0.237682  -0.413392  0  3.982008  0
C  C414  1  0.21344488  0.83229619  0.55463884  1  -0.056771  0  -0.237377  -0.411176  0  3.982038  0
C  C415  1  0.66770113  0.28655474  0.94536215  1  -0.056889  0  -0.2374  -0.411237  0  3.982031  0
C  C416  1  0.10037245  0.66774585  0.94537996  1  -0.06511  0  -0.237273  -0.411088  0  3.982254  0
C  C417  1  0.28656720  0.10032435  0.94529514  1  -0.045635  0  -0.2377  -0.413407  0  3.982011  0
C  C418  1  0.16774528  0.60037184  0.44538041  1  -0.065174  0  -0.23729  -0.411141  0  3.982302  0
C  C419  1  0.60032492  0.78656592  0.44529456  1  -0.045627  0  -0.237703  -0.413406  0  3.98204  0
C  C420  1  0.78655546  0.16770101  0.44536229  1  -0.056896  0  -0.237394  -0.411218  0  3.98217  0
C  C421  1  0.33229762  0.71344601  0.05463705  1  -0.056741  0  -0.237377  -0.411156  0  3.981991  0
C  C422  1  0.89962684  0.33225470  0.05462145  1  -0.064983  0  -0.237227  -0.411041  0  3.982276  0
C  C423  1  0.71343208  0.89967375  0.05470450  1  -0.045579  0  -0.237676  -0.413418  0  3.982024  0
O  O424  1  0.96697732  0.20437181  0.70696509  1  -1.174297  0  -0.320612  -0.55531  0  2.341741  0
O  O425  1  0.20436758  0.12152513  0.70702702  1  -1.184994  0  -0.319667  -0.553801  0  2.338507  0
O  O426  1  0.12156744  0.96688317  0.70710212  1  -1.180899  0  -0.319878  -0.553446  0  2.339463  0
O  O427  1  0.53311168  0.37843180  0.79289807  1  -1.181216  0  -0.319951  -0.553672  0  2.339502  0
O  O428  1  0.29563192  0.53301822  0.79303496  1  -1.174479  0  -0.320589  -0.555347  0  2.341758  0
O  O429  1  0.37847567  0.29563438  0.79297256  1  -1.185083  0  -0.319593  -0.553633  0  2.33865  0
O  O430  1  0.03301985  0.79563052  0.29303684  1  -1.174406  0  -0.320685  -0.555413  0  2.341776  0
O  O431  1  0.79563276  0.87847453  0.29297160  1  -1.185018  0  -0.319665  -0.553796  0  2.338609  0
O  O432  1  0.87843556  0.03311010  0.29289913  1  -1.181007  0  -0.319891  -0.553551  0  2.339383  0
O  O433  1  0.46688231  0.62156879  0.20710461  1  -1.180841  0  -0.32001  -0.553633  0  2.339507  0
O  O434  1  0.70436631  0.46698370  0.20696476  1  -1.174463  0  -0.320584  -0.555326  0  2.341734  0
O  O435  1  0.62152573  0.70436732  0.20702406  1  -1.185048  0  -0.319637  -0.553728  0  2.338676  0
O  O436  1  0.71672749  0.47047399  0.32503175  1  -1.17354  0  -0.31593  -0.548369  0  2.32093  0
O  O437  1  0.47046711  0.48765437  0.32507726  1  -1.168325  0  -0.315864  -0.548845  0  2.320232  0
O  O438  1  0.48769361  0.71673261  0.32511101  1  -1.169805  0  -0.31566  -0.548085  0  2.321305  0
O  O439  1  0.78327321  0.01230575  0.17488245  1  -1.169779  0  -0.315599  -0.547989  0  2.321566  0
O  O440  1  0.02953152  0.78326555  0.17496746  1  -1.173612  0  -0.315915  -0.548322  0  2.320854  0
O  O441  1  0.01234556  0.02952979  0.17492427  1  -1.168172  0  -0.315856  -0.548867  0  2.320462  0
O  O442  1  0.28326703  0.52952885  0.67496596  1  -1.173605  0  -0.315854  -0.548253  0  2.320993  0
O  O443  1  0.52952953  0.51234473  0.67492575  1  -1.167832  0  -0.315824  -0.54881  0  2.320185  0
O  O444  1  0.51231097  0.28327574  0.67488177  1  -1.169659  0  -0.31554  -0.547946  0  2.321481  0
O  O445  1  0.21673295  0.98769023  0.82511144  1  -1.169818  0  -0.315671  -0.548094  0  2.321303  0
O  O446  1  0.97046618  0.21673167  0.82503431  1  -1.173537  0  -0.315911  -0.548268  0  2.320944  0
O  O447  1  0.98765161  0.97047303  0.82507785  1  -1.168373  0  -0.315972  -0.549057  0  2.32034  0
O  O448  1  0.61836461  0.45981760  0.40177797  1  -1.1859  0  -0.318578  -0.552924  0  2.375149  0
O  O449  1  0.45994167  0.51984504  0.40179955  1  -1.181869  0  -0.319422  -0.554201  0  2.373395  0
O  O450  1  0.51987385  0.61829085  0.40183964  1  -1.188983  0  -0.317915  -0.552105  0  2.376032  0
O  O451  1  0.88170923  0.98012813  0.09816041  1  -1.189137  0  -0.317901  -0.552064  0  2.376346  0
O  O452  1  0.04018377  0.88163426  0.09821941  1  -1.18563  0  -0.318462  -0.552827  0  2.375161  0
O  O453  1  0.98015905  0.04005331  0.09820406  1  -1.181814  0  -0.319461  -0.554205  0  2.373208  0
O  O454  1  0.38163732  0.54018243  0.59822026  1  -1.185883  0  -0.318456  -0.552819  0  2.375136  0
O  O455  1  0.54005550  0.48015631  0.59820392  1  -1.181699  0  -0.31944  -0.554143  0  2.373347  0
O  O456  1  0.48012703  0.38171302  0.59815985  1  -1.189116  0  -0.317984  -0.552174  0  2.376359  0
O  O457  1  0.11829217  0.01987211  0.90183835  1  -1.188975  0  -0.317973  -0.552154  0  2.376144  0
O  O458  1  0.95981446  0.11836620  0.90178050  1  -1.186084  0  -0.318473  -0.552826  0  2.375133  0
O  O459  1  0.01983918  0.95994617  0.90179973  1  -1.181882  0  -0.319424  -0.554166  0  2.373418  0
O  O460  1  0.97895859  0.10031042  0.70368907  1  -1.184402  0  -0.319644  -0.551578  0  2.330144  0
O  O461  1  0.10034713  0.21699631  0.70375776  1  -1.18829  0  -0.319268  -0.551356  0  2.329894  0
O  O462  1  0.21695049  0.97882555  0.70382391  1  -1.174572  0  -0.318734  -0.549887  0  2.334161  0
O  O463  1  0.52116542  0.28305172  0.79617857  1  -1.174494  0  -0.318738  -0.55  0  2.334194  0
O  O464  1  0.39968989  0.52104311  0.79630951  1  -1.184489  0  -0.319647  -0.551549  0  2.330224  0
O  O465  1  0.28300789  0.39965720  0.79623530  1  -1.188285  0  -0.319291  -0.551468  0  2.329708  0
O  O466  1  0.02103858  0.89968946  0.29631187  1  -1.18441  0  -0.319668  -0.551647  0  2.330245  0
O  O467  1  0.89965374  0.78300461  0.29624093  1  -1.188261  0  -0.319273  -0.551424  0  2.329811  0
O  O468  1  0.78305039  0.02116705  0.29618309  1  -1.17459  0  -0.318684  -0.549862  0  2.334252  0
O  O469  1  0.47882804  0.71695299  0.20382194  1  -1.174403  0  -0.318695  -0.549911  0  2.334029  0
O  O470  1  0.60031098  0.47895782  0.20368919  1  -1.184527  0  -0.319643  -0.551558  0  2.330434  0
O  O471  1  0.71699351  0.60034451  0.20376055  1  -1.188312  0  -0.319286  -0.551427  0  2.329903  0
O  O472  1  0.57265742  0.57264211  0.28199953  1  -1.212709  0  -0.575001  -1.026473  0  2.550842  0
O  O473  1  0.92736272  0.92733936  0.21799874  1  -1.212784  0  -0.575036  -1.026436  0  2.550827  0
O  O474  1  0.42734133  0.42736158  0.71799619  1  -1.212662  0  -0.575026  -1.02644  0  2.550829  0
O  O475  1  0.07263762  0.07265931  0.78200026  1  -1.212675  0  -0.575033  -1.026488  0  2.550832  0
