# generated using pymatgen
data_CdBH48C45I2N3
_symmetry_space_group_name_H-M   'P 1'
_cell_length_a   18.29995676
_cell_length_b   18.29988253
_cell_length_c   19.09922235
_cell_angle_alpha   61.37026069
_cell_angle_beta   61.36998412
_cell_angle_gamma   59.98592765
_symmetry_Int_Tables_number   1
_chemical_formula_structural   CdBH48C45I2N3
_chemical_formula_sum   'Cd4 B4 H192 C180 I8 N12'
_cell_volume   4613.61336981
_cell_formula_units_Z   4
loop_
 _symmetry_equiv_pos_site_id
 _symmetry_equiv_pos_as_xyz
  1  'x, y, z'
loop_
 _atom_site_type_symbol
 _atom_site_label
 _atom_site_symmetry_multiplicity
 _atom_site_fract_x
 _atom_site_fract_y
 _atom_site_fract_z
 _atom_site_occupancy
 _atom_site_pbe_bader_charge
 _atom_site_pbe_bader_spin_density
 _atom_site_pbe_cm5_charge
 _atom_site_pbe_ddec_charge
 _atom_site_pbe_ddec_spin_density
 _atom_site_pbe_ddec_sum_bond_order
 _atom_site_pbe_magmom
Cd  Cd0  1  0.89970556  0.10030007  0.49999676  1  1.000881  0  0.597692  0.608121  0  2.505214  0
Cd  Cd1  1  0.50005884  0.89970313  0.50003742  1  0.992264  0  0.597723  0.608328  0  2.504795  0
Cd  Cd2  1  0.10029468  0.49993692  0.49996615  1  0.992199  0  0.597735  0.60838  0  2.504743  0
Cd  Cd3  1  0.00000685  0.99999361  0.99999919  1  0.982596  0  0.600059  0.609607  0  2.506794  0
B  B4  1  0.59999914  0.40000043  0.00000354  1  1.892152  0  -0.09715  0.411593  0  3.048105  0
B  B5  1  0.00003404  0.59992935  0.99993500  1  1.897327  0  -0.096479  0.412753  0  3.046277  0
B  B6  1  0.40006811  0.99996244  0.00006795  1  1.897289  0  -0.096467  0.412787  0  3.046146  0
B  B7  1  0.50003408  0.49996292  0.50000503  1  1.886798  0  -0.0922  0.42349  0  3.031867  0
H  H8  1  0.94384872  0.07152110  0.32550361  1  0.080587  0  0.118701  0.090901  0  0.97974  0
H  H9  1  0.65901152  0.94417895  0.32515331  1  0.071617  0  0.118968  0.091575  0  0.980101  0
H  H10  1  0.07144935  0.65921804  0.32547174  1  0.097369  0  0.118607  0.090599  0  0.979907  0
H  H11  1  0.05582441  0.34098481  0.67485237  1  0.071671  0  0.118963  0.09157  0  0.980141  0
H  H12  1  0.34077253  0.92856337  0.67452429  1  0.097247  0  0.118628  0.090622  0  0.979782  0
H  H13  1  0.92848401  0.05615396  0.67449128  1  0.080517  0  0.118692  0.090915  0  0.979705  0
H  H14  1  0.87699759  0.13309532  0.21300685  1  0.110399  0  0.100687  0.109524  0  1.03448  0
H  H15  1  0.77681853  0.87719108  0.21272835  1  0.103112  0  0.100587  0.10936  0  1.03478  0
H  H16  1  0.13302863  0.77697189  0.21299679  1  0.096881  0  0.100808  0.109578  0  1.03472  0
H  H17  1  0.12281330  0.22317830  0.78727662  1  0.100734  0  0.100601  0.109344  0  1.034752  0
H  H18  1  0.22302220  0.86698124  0.78700486  1  0.096731  0  0.100799  0.109587  0  1.034677  0
H  H19  1  0.86690165  0.12300051  0.78699424  1  0.110573  0  0.100687  0.109491  0  1.034495  0
H  H20  1  0.64705445  0.30269914  0.35412849  1  0.094907  0  0.107759  0.119727  0  1.029673  0
H  H21  1  0.69614827  0.64720359  0.35419159  1  0.098302  0  0.107697  0.119361  0  1.029521  0
H  H22  1  0.30276443  0.69590361  0.35407882  1  0.108771  0  0.107881  0.119851  0  1.029554  0
H  H23  1  0.35279546  0.30385461  0.64581103  1  0.098196  0  0.107721  0.119374  0  1.029599  0
H  H24  1  0.30409116  0.69723972  0.64592648  1  0.108894  0  0.107849  0.119859  0  1.02956  0
H  H25  1  0.69729890  0.35294619  0.64587631  1  0.094869  0  0.107787  0.119763  0  1.029664  0
H  H26  1  0.71906786  0.22711639  0.46513497  1  0.099047  0  0.111408  0.080347  0  1.002802  0
H  H27  1  0.58888698  0.71927474  0.46517148  1  0.085782  0  0.111264  0.079761  0  1.003197  0
H  H28  1  0.22708689  0.58857111  0.46509856  1  0.099632  0  0.111563  0.080472  0  1.003097  0
H  H29  1  0.28072832  0.41110919  0.53482925  1  0.085788  0  0.111286  0.079803  0  1.003215  0
H  H30  1  0.41142058  0.77291717  0.53490339  1  0.099398  0  0.111572  0.080441  0  1.003065  0
H  H31  1  0.77288368  0.28093759  0.53486470  1  0.099112  0  0.111402  0.080267  0  1.002853  0
H  H32  1  0.77351119  0.37095061  0.21742998  1  0.026975  0  0.090293  0.12877  0  1.024605  0
H  H33  1  0.63814008  0.77351708  0.21749035  1  0.075869  0  0.090319  0.128878  0  1.025046  0
H  H34  1  0.37107210  0.63802027  0.21742926  1  0.014071  0  0.090634  0.129751  0  1.023748  0
H  H35  1  0.22648552  0.36185718  0.78251324  1  0.075984  0  0.090321  0.128914  0  1.025011  0
H  H36  1  0.36198161  0.62892523  0.78257554  1  0.014205  0  0.090637  0.129769  0  1.023719  0
H  H37  1  0.62904722  0.22648304  0.78257820  1  0.027113  0  0.090298  0.128748  0  1.024616  0
H  H38  1  0.68229397  0.46799993  0.19358142  1  0.027019  0  0.087197  0.116629  0  1.014784  0
H  H39  1  0.65613720  0.68233997  0.19361040  1  0.032666  0  0.087514  0.117422  0  1.014621  0
H  H40  1  0.46805209  0.65614515  0.19356930  1  0.017277  0  0.087405  0.117239  0  1.014071  0
H  H41  1  0.31766284  0.34386093  0.80639289  1  0.032673  0  0.087494  0.117381  0  1.014682  0
H  H42  1  0.34385186  0.53194785  0.80643578  1  0.01732  0  0.087397  0.11722  0  1.014088  0
H  H43  1  0.53199722  0.31770065  0.80642693  1  0.026959  0  0.087153  0.116525  0  1.014762  0
H  H44  1  0.78269822  0.44179900  0.11251604  1  0.057545  0  0.091746  0.124775  0  1.010012  0
H  H45  1  0.66301045  0.78274993  0.11255858  1  0.051461  0  0.091988  0.12531  0  1.009562  0
H  H46  1  0.44189541  0.66296293  0.11251124  1  0.020063  0  0.092072  0.12554  0  1.009338  0
H  H47  1  0.21725204  0.33698976  0.88744390  1  0.051452  0  0.091961  0.125271  0  1.009563  0
H  H48  1  0.33703632  0.55810247  0.88749385  1  0.01999  0  0.092073  0.125504  0  1.009279  0
H  H49  1  0.55819842  0.21729755  0.88749337  1  0.057694  0  0.091782  0.124846  0  1.009917  0
H  H50  1  0.62054177  0.52657400  0.99930788  1  0.058922  0  0.093396  0.125984  0  1.059554  0
H  H51  1  0.85353035  0.62042884  0.99947476  1  0.02585  0  0.093436  0.126425  0  1.059151  0
H  H52  1  0.52661427  0.85350264  0.99954324  1  0.053835  0  0.093447  0.126058  0  1.059609  0
H  H53  1  0.37956869  0.14646961  0.00053196  1  0.026653  0  0.09344  0.126449  0  1.059151  0
H  H54  1  0.14649009  0.47338764  0.00046016  1  0.053678  0  0.093447  0.126023  0  1.059688  0
H  H55  1  0.47342412  0.37946210  0.00069511  1  0.058784  0  0.093395  0.126008  0  1.059466  0
H  H56  1  0.72101139  0.50676803  0.00933577  1  0.048657  0  0.092475  0.127488  0  0.992262  0
H  H57  1  0.76282551  0.72088653  0.00958522  1  0.05662  0  0.092553  0.127527  0  0.99277  0
H  H58  1  0.50691274  0.76276549  0.00955236  1  0.019421  0  0.092339  0.12689  0  0.993034  0
H  H59  1  0.27911112  0.23717495  0.99041916  1  0.056585  0  0.092586  0.127574  0  0.99276  0
H  H60  1  0.23723071  0.49308109  0.99045502  1  0.019546  0  0.092332  0.126878  0  0.993027  0
H  H61  1  0.49322531  0.27899095  0.99067131  1  0.048624  0  0.092472  0.127518  0  0.992239  0
H  H62  1  0.61855537  0.53991752  0.08596563  1  0.032345  0  0.089875  0.125081  0  1.001003  0
H  H63  1  0.75557137  0.61842127  0.08621620  1  0.010915  0  0.089968  0.125138  0  1.002027  0
H  H64  1  0.53985431  0.75553419  0.08626757  1  0.002226  0  0.090136  0.125418  0  1.001216  0
H  H65  1  0.38157735  0.24442714  0.91378835  1  0.010988  0  0.089975  0.125151  0  1.002029  0
H  H66  1  0.24446050  0.46014271  0.91373736  1  0.002314  0  0.090116  0.125408  0  1.00123  0
H  H67  1  0.46008063  0.38144705  0.91403910  1  0.03241  0  0.089884  0.125106  0  1.001035  0
H  H68  1  0.60540788  0.24182349  0.05200056  1  0.027147  0  0.09041  0.122095  0  1.06855  0
H  H69  1  0.10087360  0.60538177  0.05190351  1  0.059211  0  0.090494  0.122844  0  1.067643  0
H  H70  1  0.24203968  0.10076419  0.05203163  1  0.035701  0  0.090336  0.122139  0  1.067829  0
H  H71  1  0.39461540  0.89912336  0.94809646  1  0.0592  0  0.090517  0.122883  0  1.067606  0
H  H72  1  0.89923224  0.75795876  0.94796661  1  0.035871  0  0.090337  0.122144  0  1.067834  0
H  H73  1  0.75817462  0.39459370  0.94800059  1  0.027092  0  0.090413  0.122071  0  1.06853  0
H  H74  1  0.56399643  0.19584403  0.16260368  1  0.046759  0  0.095685  0.13119  0  0.99339  0
H  H75  1  0.07780759  0.56390528  0.16250245  1  0.064282  0  0.095749  0.131715  0  0.992427  0
H  H76  1  0.19596819  0.07766557  0.16263519  1  0.033344  0  0.095691  0.131442  0  0.993253  0
H  H77  1  0.43609190  0.92219294  0.83749583  1  0.0642  0  0.095767  0.131726  0  0.992474  0
H  H78  1  0.92233814  0.80402641  0.83736155  1  0.033166  0  0.095696  0.131435  0  0.993267  0
H  H79  1  0.80415248  0.43600271  0.83739825  1  0.046901  0  0.095654  0.131149  0  0.993517  0
H  H80  1  0.67449968  0.14364333  0.10723839  1  0.029887  0  0.086893  0.121814  0  1.022515  0
H  H81  1  0.07475169  0.67444919  0.10714998  1  0.028775  0  0.086975  0.122144  0  1.022336  0
H  H82  1  0.14373710  0.07486533  0.10720932  1  0.047553  0  0.086879  0.121675  0  1.022779  0
H  H83  1  0.32554717  0.92525194  0.89284812  1  0.028667  0  0.086952  0.122114  0  1.022369  0
H  H84  1  0.92513084  0.85626172  0.89278961  1  0.047646  0  0.086903  0.121693  0  1.022808  0
H  H85  1  0.85635334  0.32550128  0.89276425  1  0.029895  0  0.086919  0.121861  0  1.022536  0
H  H86  1  0.70798244  0.10900148  0.30104891  1  0.044447  0  0.086305  0.124255  0  1.025159  0
H  H87  1  0.88207646  0.70803800  0.30097531  1  0.041533  0  0.086121  0.12412  0  1.0253  0
H  H88  1  0.10893988  0.88204112  0.30105217  1  0.043056  0  0.086339  0.124242  0  1.025705  0
H  H89  1  0.29196366  0.11792821  0.69902389  1  0.041511  0  0.0861  0.124079  0  1.025345  0
H  H90  1  0.11795183  0.89106149  0.69895216  1  0.043201  0  0.086312  0.124186  0  1.025678  0
H  H91  1  0.89099255  0.29201383  0.69895739  1  0.044452  0  0.086305  0.124259  0  1.025153  0
H  H92  1  0.74362234  0.07938565  0.21145792  1  0.011983  0  0.077089  0.11759  0  1.043167  0
H  H93  1  0.96556723  0.74372455  0.21134132  1  0.058863  0  0.077254  0.118167  0  1.042254  0
H  H94  1  0.07933505  0.96552481  0.21140289  1  0.050015  0  0.077266  0.11787  0  1.043149  0
H  H95  1  0.25627597  0.03443531  0.78865714  1  0.058962  0  0.077256  0.11819  0  1.04219  0
H  H96  1  0.03446901  0.92066323  0.78860332  1  0.050435  0  0.077272  0.117938  0  1.043168  0
H  H97  1  0.92061066  0.25637303  0.78854652  1  0.01194  0  0.077114  0.117648  0  1.043117  0
H  H98  1  0.62835011  0.12072065  0.26507646  1  0.030559  0  0.090406  0.126451  0  1.00215  0
H  H99  1  0.98603560  0.62844581  0.26495226  1  0.037638  0  0.090386  0.126664  0  1.001059  0
H  H100  1  0.12059527  0.98598778  0.26494865  1  0.023392  0  0.09046  0.12662  0  1.001102  0
H  H101  1  0.37155650  0.01396601  0.73504277  1  0.037603  0  0.09039  0.126637  0  1.001112  0
H  H102  1  0.01400746  0.87940142  0.73505810  1  0.023019  0  0.090484  0.12665  0  1.001046  0
H  H103  1  0.87927617  0.37164621  0.73492725  1  0.03073  0  0.090436  0.126514  0  1.002062  0
H  H104  1  0.09489080  0.83128052  0.93793821  1  0.074408  0  0.113175  0.082926  0  1.004854  0
H  H105  1  0.13578221  0.09486035  0.93802283  1  0.109168  0  0.113049  0.082602  0  1.00549  0
H  H106  1  0.83138045  0.13602576  0.93775459  1  0.102212  0  0.112936  0.082609  0  1.005222  0
H  H107  1  0.90513644  0.86421898  0.06197691  1  0.109106  0  0.11304  0.08257  0  1.005404  0
H  H108  1  0.86397681  0.16861852  0.06224525  1  0.102251  0  0.112962  0.082604  0  1.005238  0
H  H109  1  0.16871889  0.90510992  0.06206179  1  0.074373  0  0.113192  0.08296  0  1.004863  0
H  H110  1  0.22666689  0.69180366  0.93930845  1  0.084477  0  0.108443  0.118714  0  1.030581  0
H  H111  1  0.14203986  0.22666109  0.93937189  1  0.098502  0  0.108106  0.117668  0  1.032128  0
H  H112  1  0.69182909  0.14247036  0.93924937  1  0.100774  0  0.108313  0.118231  0  1.03202  0
H  H113  1  0.77333319  0.85796539  0.06062855  1  0.098586  0  0.108107  0.117673  0  1.032197  0
H  H114  1  0.85753276  0.30817044  0.06074987  1  0.100817  0  0.108336  0.118224  0  1.032  0
H  H115  1  0.30819740  0.77333573  0.06068809  1  0.084468  0  0.108467  0.118738  0  1.03053  0
H  H116  1  0.58974722  0.62607226  0.80243700  1  0.057492  0  0.084394  0.132058  0  1.042  0
H  H117  1  0.98210987  0.58964559  0.80213567  1  0.046246  0  0.084234  0.13174  0  1.042262  0
H  H118  1  0.62610957  0.98195973  0.80247918  1  0.047803  0  0.084416  0.132136  0  1.042335  0
H  H119  1  0.41035356  0.01789416  0.19786275  1  0.046154  0  0.084225  0.131728  0  1.042251  0
H  H120  1  0.01804212  0.37388932  0.19751733  1  0.047827  0  0.084405  0.132133  0  1.042361  0
H  H121  1  0.37392659  0.41025568  0.19756753  1  0.057568  0  0.08438  0.132041  0  1.041961  0
H  H122  1  0.60552261  0.51619964  0.81977299  1  0.038563  0  0.092492  0.136976  0  1.014159  0
H  H123  1  0.05889520  0.60519607  0.81965445  1  0.023482  0  0.092597  0.136998  0  1.013727  0
H  H124  1  0.51625494  0.05878269  0.81984986  1  0.053414  0  0.092771  0.137597  0  1.012899  0
H  H125  1  0.39480375  0.94110658  0.18034590  1  0.023617  0  0.092611  0.137031  0  1.013761  0
H  H126  1  0.94121729  0.48374195  0.18015281  1  0.053428  0  0.092766  0.137609  0  1.01292  0
H  H127  1  0.48380112  0.39447779  0.18022987  1  0.038302  0  0.09247  0.136893  0  1.014198  0
H  H128  1  0.65393265  0.53613434  0.86635264  1  0.049333  0  0.09091  0.125196  0  1.021146  0
H  H129  1  0.94394465  0.65387689  0.86599378  1  0.02099  0  0.090777  0.125088  0  1.021611  0
H  H130  1  0.53615852  0.94383295  0.86625597  1  0.011073  0  0.09111  0.12578  0  1.020539  0
H  H131  1  0.34612085  0.05605733  0.13400704  1  0.021238  0  0.090794  0.125094  0  1.02154  0
H  H132  1  0.05616460  0.46384255  0.13374166  1  0.011127  0  0.091095  0.125779  0  1.020502  0
H  H133  1  0.46386466  0.34606997  0.13364887  1  0.049431  0  0.090868  0.125123  0  1.021069  0
H  H134  1  0.48932005  0.72193781  0.79941157  1  0.069838  0  0.077911  0.126026  0  1.068664  0
H  H135  1  0.98913079  0.48934111  0.79936257  1  0.071811  0  0.077968  0.126108  0  1.068148  0
H  H136  1  0.72189359  0.98949192  0.79944835  1  0.069311  0  0.077875  0.12617  0  1.06891  0
H  H137  1  0.51065846  0.01087542  0.20063486  1  0.071827  0  0.077983  0.12615  0  1.068079  0
H  H138  1  0.01051093  0.27810434  0.20054892  1  0.069405  0  0.077859  0.126164  0  1.068914  0
H  H139  1  0.27805682  0.51067860  0.20058641  1  0.069568  0  0.077933  0.126042  0  1.0687  0
H  H140  1  0.40922089  0.78132030  0.87134651  1  0.05352  0  0.086528  0.123996  0  1.020444  0
H  H141  1  0.93805261  0.40916069  0.87127101  1  0.027321  0  0.086423  0.123767  0  1.020306  0
H  H142  1  0.78133300  0.93832600  0.87130747  1  0.038345  0  0.086646  0.124346  0  1.020289  0
H  H143  1  0.59083950  0.06195206  0.12872571  1  0.027186  0  0.086395  0.123743  0  1.020343  0
H  H144  1  0.06167662  0.21866604  0.12868804  1  0.038768  0  0.086651  0.124374  0  1.020293  0
H  H145  1  0.21867860  0.59077786  0.12864988  1  0.053411  0  0.08651  0.12399  0  1.020557  0
H  H146  1  0.37612578  0.73967560  0.82959849  1  0.032907  0  0.081979  0.115456  0  1.040804  0
H  H147  1  0.05455772  0.37617133  0.82950095  1  0.055407  0  0.082029  0.114963  0  1.040646  0
H  H148  1  0.73954691  0.05482843  0.82962177  1  0.024935  0  0.08217  0.115787  0  1.040112  0
H  H149  1  0.62382739  0.94544681  0.17049641  1  0.055551  0  0.082045  0.115019  0  1.040607  0
H  H150  1  0.94517379  0.26045011  0.17037810  1  0.024772  0  0.082162  0.115811  0  1.040094  0
H  H151  1  0.26031710  0.62387273  0.17040448  1  0.032954  0  0.081994  0.115478  0  1.040765  0
H  H152  1  0.10055812  0.04143945  0.48119376  1  0.118823  0  0.10528  0.083903  0  1.022306  0
H  H153  1  0.37685043  0.10056087  0.48116518  1  0.112051  0  0.105472  0.084185  0  1.023646  0
H  H154  1  0.04149107  0.37672102  0.48120703  1  0.125911  0  0.105524  0.08411  0  1.022644  0
H  H155  1  0.89943680  0.62315055  0.51882885  1  0.112035  0  0.105433  0.084092  0  1.023757  0
H  H156  1  0.62327455  0.95850692  0.51879321  1  0.125935  0  0.105502  0.084113  0  1.022655  0
H  H157  1  0.95856768  0.89944528  0.51880124  1  0.118831  0  0.105313  0.083939  0  1.022395  0
H  H158  1  0.23901849  0.90742429  0.48436740  1  0.095226  0  0.101339  0.118334  0  1.024072  0
H  H159  1  0.36918503  0.23899914  0.48441208  1  0.09452  0  0.100968  0.117829  0  1.024539  0
H  H160  1  0.90751017  0.36917866  0.48426578  1  0.125206  0  0.101247  0.118157  0  1.02409  0
H  H161  1  0.76099914  0.63081332  0.51558434  1  0.094337  0  0.100935  0.117782  0  1.024585  0
H  H162  1  0.63081510  0.09248757  0.51573597  1  0.125291  0  0.101201  0.118131  0  1.024048  0
H  H163  1  0.09258359  0.76098457  0.51563585  1  0.095449  0  0.101321  0.11843  0  1.02395  0
H  H164  1  0.25966491  0.49387826  0.65317211  1  0.029942  0  0.091957  0.131977  0  1.00926  0
H  H165  1  0.59307398  0.25977786  0.65323075  1  0.032368  0  0.091875  0.131504  0  1.008818  0
H  H166  1  0.49407513  0.59315566  0.65336686  1  0.043199  0  0.092112  0.132192  0  1.009196  0
H  H167  1  0.74021754  0.40692545  0.34677375  1  0.032465  0  0.091882  0.131567  0  1.008787  0
H  H168  1  0.40684648  0.50592459  0.34664041  1  0.043191  0  0.092131  0.132166  0  1.009233  0
H  H169  1  0.50611980  0.74033481  0.34683533  1  0.029792  0  0.091932  0.131992  0  1.00914  0
H  H170  1  0.32510766  0.49945826  0.69330928  1  0.015599  0  0.087333  0.117087  0  1.013517  0
H  H171  1  0.48184047  0.32519704  0.69330534  1  0.013603  0  0.087245  0.116371  0  1.013238  0
H  H172  1  0.49967197  0.48197127  0.69354355  1  0.013191  0  0.087216  0.116825  0  1.013033  0
H  H173  1  0.67479851  0.51816003  0.30670488  1  0.013776  0  0.087254  0.116413  0  1.013222  0
H  H174  1  0.51802988  0.50032304  0.30646494  1  0.013247  0  0.087204  0.116815  0  1.013051  0
H  H175  1  0.50053469  0.67489027  0.30670323  1  0.015685  0  0.087322  0.117078  0  1.013541  0
H  H176  1  0.37669000  0.44082079  0.62035161  1  0.046411  0  0.089614  0.122295  0  1.069525  0
H  H177  1  0.56180220  0.37681472  0.62036652  1  0.04853  0  0.089655  0.121975  0  1.069609  0
H  H178  1  0.44095736  0.56199306  0.62063516  1  0.047492  0  0.089532  0.122254  0  1.068803  0
H  H179  1  0.62318081  0.43819705  0.37963896  1  0.048522  0  0.089627  0.121965  0  1.069664  0
H  H180  1  0.43801201  0.55903816  0.37937225  1  0.047741  0  0.089493  0.122179  0  1.068801  0
H  H181  1  0.55917936  0.62331006  0.37965475  1  0.046397  0  0.089629  0.122422  0  1.06946  0
H  H182  1  0.13174945  0.72631316  0.65036535  1  0.018585  0  0.089583  0.131848  0  1.008859  0
H  H183  1  0.49143736  0.13178642  0.65053793  1  0.035949  0  0.089609  0.132008  0  1.008981  0
H  H184  1  0.72641902  0.49140950  0.65052259  1  0.046837  0  0.089768  0.132326  0  1.008494  0
H  H185  1  0.86820534  0.50856464  0.34947012  1  0.035637  0  0.089625  0.132026  0  1.00903  0
H  H186  1  0.50858646  0.27357736  0.34948648  1  0.046823  0  0.089774  0.132313  0  1.008496  0
H  H187  1  0.27368524  0.86823965  0.34964628  1  0.018272  0  0.089595  0.131886  0  1.008693  0
H  H188  1  0.19338121  0.61799923  0.70186606  1  3.1e-05  0  0.087225  0.12034  0  1.023482  0
H  H189  1  0.48652626  0.19359890  0.70188847  1  0.041808  0  0.087387  0.120374  0  1.024175  0
H  H190  1  0.61810272  0.48666206  0.70193569  1  0.022543  0  0.087303  0.12059  0  1.023967  0
H  H191  1  0.80639722  0.51347224  0.29811677  1  0.041777  0  0.087381  0.120327  0  1.024135  0
H  H192  1  0.51333200  0.38189437  0.29807161  1  0.022776  0  0.087286  0.120563  0  1.023959  0
H  H193  1  0.38200059  0.80661069  0.29814367  1  0.000163  0  0.087275  0.120435  0  1.023463  0
H  H194  1  0.13334898  0.63266965  0.64308681  1  0.069411  0  0.077218  0.127306  0  1.055096  0
H  H195  1  0.59073599  0.13346509  0.64324760  1  0.069011  0  0.077319  0.127509  0  1.055155  0
H  H196  1  0.63278265  0.59078070  0.64321975  1  0.076952  0  0.077244  0.127783  0  1.055746  0
H  H197  1  0.86653424  0.40926329  0.35675585  1  0.069079  0  0.077325  0.12754  0  1.055072  0
H  H198  1  0.40921378  0.36721241  0.35678855  1  0.076875  0  0.077262  0.127781  0  1.055759  0
H  H199  1  0.36732838  0.86665187  0.35691673  1  0.069357  0  0.077212  0.127342  0  1.054988  0
C  C200  1  0.87757154  0.12227182  0.32987912  1  0.49329  0  0.050846  0.103179  0  3.948881  0
C  C201  1  0.67024966  0.87784618  0.32963018  1  0.503251  0  0.050283  0.101641  0  3.94816  0
C  C202  1  0.12222381  0.67032163  0.32984549  1  0.462599  0  0.050664  0.102657  0  3.94745  0
C  C203  1  0.12215736  0.32974734  0.67037435  1  0.50385  0  0.050268  0.101617  0  3.948478  0
C  C204  1  0.32966838  0.87778655  0.67015333  1  0.462683  0  0.050645  0.102665  0  3.947556  0
C  C205  1  0.87772910  0.12243228  0.67011803  1  0.493484  0  0.050804  0.103099  0  3.948666  0
C  C206  1  0.84053175  0.15809894  0.26652628  1  -0.039955  0  -0.079037  -0.168482  0  3.931354  0
C  C207  1  0.73481221  0.84073693  0.26631090  1  -0.032247  0  -0.078854  -0.167558  0  3.929948  0
C  C208  1  0.15805994  0.73487551  0.26649520  1  -0.014789  0  -0.07885  -0.167523  0  3.929578  0
C  C209  1  0.15926644  0.26518546  0.73369311  1  -0.030048  0  -0.078895  -0.167577  0  3.929921  0
C  C210  1  0.26511745  0.84194887  0.73350463  1  -0.014458  0  -0.078867  -0.167561  0  3.929588  0
C  C211  1  0.84189976  0.15946756  0.73347417  1  -0.040084  0  -0.078977  -0.168338  0  3.931269  0
C  C212  1  0.75689207  0.22608272  0.27267255  1  -0.019414  0  0.017234  0.132478  0  3.977923  0
C  C213  1  0.74438452  0.75702786  0.27257763  1  -0.0541  0  0.016789  0.130799  0  3.976721  0
C  C214  1  0.22605459  0.74433747  0.27264704  1  -0.05292  0  0.01698  0.131966  0  3.977473  0
C  C215  1  0.24297454  0.25561503  0.72742464  1  -0.054014  0  0.016762  0.130737  0  3.976551  0
C  C216  1  0.25565810  0.77394848  0.72735824  1  -0.053053  0  0.016985  0.131949  0  3.977535  0
C  C217  1  0.77391377  0.24310652  0.72733125  1  -0.019358  0  0.01722  0.132484  0  3.978021  0
C  C218  1  0.71285567  0.25158219  0.34526243  1  -0.028253  0  -0.080704  -0.170504  0  3.927262  0
C  C219  1  0.69033869  0.71303429  0.34523263  1  0.050799  0  -0.080304  -0.169199  0  3.925742  0
C  C220  1  0.25158756  0.69017969  0.34522809  1  0.022414  0  -0.080943  -0.171509  0  3.928016  0
C  C221  1  0.28696789  0.30966111  0.65476965  1  0.050796  0  -0.080308  -0.169136  0  3.92583  0
C  C222  1  0.30981329  0.74841639  0.65477668  1  0.022042  0  -0.08096  -0.171589  0  3.928103  0
C  C223  1  0.74841681  0.28714362  0.65474064  1  -0.028502  0  -0.080743  -0.1706  0  3.927168  0
C  C224  1  0.75316690  0.21031856  0.40688855  1  0.487052  0  0.042599  0.091226  0  3.977207  0
C  C225  1  0.62972733  0.75338831  0.40683322  1  0.436769  0  0.042233  0.09111  0  3.976241  0
C  C226  1  0.21029729  0.62954122  0.40685995  1  0.429264  0  0.042813  0.091868  0  3.976936  0
C  C227  1  0.24661464  0.37027038  0.59316997  1  0.436761  0  0.042227  0.091027  0  3.976279  0
C  C228  1  0.37045032  0.78970995  0.59314235  1  0.429526  0  0.042861  0.092055  0  3.976931  0
C  C229  1  0.78968424  0.24683444  0.59310898  1  0.487179  0  0.042621  0.091377  0  3.976978  0
C  C230  1  0.71575585  0.27044114  0.20516580  1  -0.008236  0  -0.015347  -0.06366  0  3.977844  0
C  C231  1  0.80871121  0.71579032  0.20513299  1  -0.057612  0  -0.014696  -0.061558  0  3.974909  0
C  C232  1  0.27040714  0.80862254  0.20515901  1  -0.033462  0  -0.014887  -0.062357  0  3.976316  0
C  C233  1  0.28421275  0.19128760  0.79486899  1  -0.057432  0  -0.014667  -0.06133  0  3.974676  0
C  C234  1  0.19137603  0.72959395  0.79484691  1  -0.033331  0  -0.01484  -0.062309  0  3.976242  0
C  C235  1  0.72955747  0.28424006  0.79483851  1  -0.007745  0  -0.015357  -0.063749  0  3.978204  0
C  C236  1  0.68788435  0.22206283  0.18961107  1  -0.029955  0  -0.014155  0.060447  0  3.935453  0
C  C237  1  0.90054309  0.68787531  0.18956064  1  -0.023804  0  -0.014572  0.059946  0  3.934494  0
C  C238  1  0.22203093  0.90045821  0.18959843  1  0.052173  0  -0.014482  0.059872  0  3.936101  0
C  C239  1  0.31212608  0.09945677  0.81044181  1  -0.023698  0  -0.014602  0.059818  0  3.93474  0
C  C240  1  0.09953861  0.77797000  0.81040510  1  0.052406  0  -0.014465  0.059924  0  3.936008  0
C  C241  1  0.77793327  0.31211185  0.81039472  1  -0.030225  0  -0.014122  0.060495  0  3.935386  0
C  C242  1  0.65288654  0.26319950  0.12278622  1  -0.017586  0  -0.004634  0.110515  0  3.934815  0
C  C243  1  0.96125550  0.65279829  0.12278277  1  -0.028199  0  -0.004013  0.112495  0  3.9345  0
C  C244  1  0.26319025  0.96115894  0.12286786  1  -0.051572  0  -0.004008  0.111142  0  3.935435  0
C  C245  1  0.34720320  0.03874319  0.87721936  1  -0.028319  0  -0.003986  0.112563  0  3.934574  0
C  C246  1  0.03883984  0.73680782  0.87713458  1  -0.051594  0  -0.003981  0.111111  0  3.935297  0
C  C247  1  0.73679663  0.34711242  0.87721956  1  -0.017192  0  -0.004642  0.110479  0  3.93477  0
C  C248  1  0.64103791  0.35365093  0.07419039  1  -0.588257  0  -0.009101  -0.253785  0  3.922721  0
C  C249  1  0.93123403  0.64089371  0.07423517  1  -0.575363  0  -0.009579  -0.256845  0  3.926373  0
C  C250  1  0.35366036  0.93111938  0.07428840  1  -0.645649  0  -0.009465  -0.25511  0  3.922845  0
C  C251  1  0.35910590  0.06876331  0.92576796  1  -0.575398  0  -0.00956  -0.256787  0  3.926292  0
C  C252  1  0.06887978  0.64633847  0.92571474  1  -0.645715  0  -0.009473  -0.25511  0  3.922684  0
C  C253  1  0.64634634  0.35896084  0.92581422  1  -0.588311  0  -0.009184  -0.253933  0  3.922707  0
C  C254  1  0.66545186  0.40236480  0.09383048  1  0.000163  0  -0.008355  0.097167  0  3.949989  0
C  C255  1  0.83845449  0.66534243  0.09392205  1  -0.031962  0  -0.00826  0.099246  0  3.950177  0
C  C256  1  0.40234504  0.83834869  0.09392372  1  -0.022363  0  -0.00827  0.098834  0  3.94766  0
C  C257  1  0.33465732  0.16154340  0.90608373  1  -0.031737  0  -0.008255  0.099244  0  3.950319  0
C  C258  1  0.16165000  0.59765590  0.90608087  1  -0.027644  0  -0.008298  0.09888  0  3.947583  0
C  C259  1  0.59763449  0.33454561  0.90617649  1  0.000101  0  -0.008364  0.09717  0  3.949823  0
C  C260  1  0.70477396  0.36054318  0.15773223  1  -0.096526  0  -0.020014  0.040967  0  3.961741  0
C  C261  1  0.77700826  0.70475400  0.15777248  1  -0.030958  0  -0.020572  0.039388  0  3.958422  0
C  C262  1  0.36052228  0.77692155  0.15776520  1  -0.02411  0  -0.020495  0.040316  0  3.959029  0
C  C263  1  0.29524659  0.22299059  0.84223226  1  -0.031264  0  -0.020585  0.039246  0  3.958493  0
C  C264  1  0.22307933  0.63947790  0.84223972  1  -0.018644  0  -0.020489  0.04029  0  3.95909  0
C  C265  1  0.63946179  0.29521954  0.84227162  1  -0.096861  0  -0.020022  0.041075  0  3.961669  0
C  C266  1  0.73756442  0.41225074  0.17141084  1  -0.072343  0  -0.241059  -0.400444  0  3.978321  0
C  C267  1  0.67879637  0.73758401  0.17145032  1  -0.119157  0  -0.241508  -0.401873  0  3.977484  0
C  C268  1  0.41232070  0.67874272  0.17141433  1  -0.010641  0  -0.241737  -0.40306  0  3.97681  0
C  C269  1  0.26241753  0.32120241  0.82855230  1  -0.119315  0  -0.241485  -0.401817  0  3.977511  0
C  C270  1  0.32125531  0.58768015  0.82859010  1  -0.010783  0  -0.241738  -0.402994  0  3.97674  0
C  C271  1  0.58774651  0.26243123  0.82859875  1  -0.072363  0  -0.241056  -0.400421  0  3.978058  0
C  C272  1  0.65570895  0.49855489  0.04431889  1  -0.105649  0  -0.238179  -0.407347  0  3.973827  0
C  C273  1  0.80141354  0.65557288  0.04452558  1  -0.063867  0  -0.239098  -0.409031  0  3.976162  0
C  C274  1  0.49858057  0.80135693  0.04453738  1  -0.04563  0  -0.238709  -0.407945  0  3.974429  0
C  C275  1  0.34442476  0.19858521  0.95547981  1  -0.064722  0  -0.239137  -0.409102  0  3.976226  0
C  C276  1  0.19863962  0.50141899  0.95546632  1  -0.045737  0  -0.23869  -0.407929  0  3.974488  0
C  C277  1  0.50144305  0.34429218  0.95568420  1  -0.105589  0  -0.238176  -0.407431  0  3.973687  0
C  C278  1  0.62270950  0.20893070  0.10988748  1  -0.068576  0  -0.242305  -0.419743  0  3.984358  0
C  C279  1  0.05864043  0.62263359  0.10982102  1  -0.11678  0  -0.242716  -0.421981  0  3.98415  0
C  C280  1  0.20902491  0.05857966  0.10993686  1  -0.089117  0  -0.242257  -0.419851  0  3.98363  0
C  C281  1  0.37736369  0.94135949  0.89017929  1  -0.116571  0  -0.242707  -0.421994  0  3.984227  0
C  C282  1  0.94141902  0.79097302  0.89006266  1  -0.089199  0  -0.24232  -0.419876  0  3.983727  0
C  C283  1  0.79106825  0.37728929  0.89011546  1  -0.069048  0  -0.24231  -0.419715  0  3.98451  0
C  C284  1  0.69226411  0.12822759  0.24467085  1  -0.047645  0  -0.246639  -0.406574  0  3.980849  0
C  C285  1  0.93493321  0.69232031  0.24458055  1  -0.081454  0  -0.24666  -0.407324  0  3.979117  0
C  C286  1  0.12815371  0.93488353  0.24461880  1  -0.077581  0  -0.246829  -0.406943  0  3.980764  0
C  C287  1  0.30768274  0.06506789  0.75541944  1  -0.081479  0  -0.246642  -0.407292  0  3.979252  0
C  C288  1  0.06511125  0.87184472  0.75538666  1  -0.077946  0  -0.246878  -0.407048  0  3.980854  0
C  C289  1  0.87176911  0.30773130  0.75533211  1  -0.047504  0  -0.246649  -0.406647  0  3.980662  0
C  C290  1  0.14296302  0.81508924  0.96613257  1  0.500231  0  0.043001  0.090899  0  3.970194  0
C  C291  1  0.07569024  0.14291818  0.96623631  1  0.462738  0  0.042916  0.090336  0  3.970791  0
C  C292  1  0.81514023  0.07597565  0.96599789  1  0.48966  0  0.043426  0.091441  0  3.967786  0
C  C293  1  0.85707662  0.92431317  0.03376260  1  0.462925  0  0.042956  0.090428  0  3.970784  0
C  C294  1  0.92402582  0.18486019  0.03400062  1  0.489952  0  0.043417  0.091491  0  3.967758  0
C  C295  1  0.18491125  0.85703879  0.03386678  1  0.500191  0  0.042977  0.090834  0  3.970169  0
C  C296  1  0.21742741  0.73776804  0.96610533  1  -0.019798  0  -0.077832  -0.171302  0  3.917192  0
C  C297  1  0.07851545  0.21741655  0.96617706  1  -0.0356  0  -0.077031  -0.168701  0  3.916525  0
C  C298  1  0.73778769  0.07890736  0.96600946  1  -0.036475  0  -0.077822  -0.170569  0  3.915875  0
C  C299  1  0.78257903  0.92148743  0.03382508  1  -0.035639  0  -0.077019  -0.168697  0  3.916564  0
C  C300  1  0.92109680  0.26220959  0.03398948  1  -0.036671  0  -0.077829  -0.170558  0  3.91585  0
C  C301  1  0.26223267  0.78257500  0.03389267  1  -0.019664  0  -0.077789  -0.171218  0  3.917117  0
C  C302  1  0.27964271  0.72035754  0.99999950  1  -0.039608  0  0.026711  0.152465  0  3.955394  0
C  C303  1  0.99977560  0.27966646  0.00003949  1  -0.049629  0  0.026213  0.150644  0  3.954863  0
C  C304  1  0.72033208  0.00022657  0.99995908  1  -0.049752  0  0.026171  0.150651  0  3.954852  0
C  C305  1  0.36096522  0.63903438  0.00000056  1  -0.011562  0  -0.019209  -0.074332  0  3.982843  0
C  C306  1  0.99978777  0.36101056  0.99996990  1  -0.008417  0  -0.018754  -0.071655  0  3.979395  0
C  C307  1  0.63898913  0.00021609  0.00002710  1  -0.008484  0  -0.018779  -0.071719  0  3.97945  0
C  C308  1  0.43546069  0.63990677  0.92698355  1  -0.031466  0  -0.016296  0.058565  0  3.943839  0
C  C309  1  0.99748650  0.43547214  0.92692965  1  -0.007268  0  -0.016121  0.05755  0  3.94463  0
C  C310  1  0.63989595  0.99776695  0.92704140  1  -0.041634  0  -0.016315  0.057509  0  3.943805  0
C  C311  1  0.56452534  0.00251728  0.07306914  1  -0.007099  0  -0.016128  0.057509  0  3.944545  0
C  C312  1  0.00223368  0.36010352  0.07295593  1  -0.041647  0  -0.016285  0.057604  0  3.943832  0
C  C313  1  0.36009272  0.56454033  0.07301628  1  -0.031414  0  -0.016192  0.058933  0  3.943628  0
C  C314  1  0.51208161  0.56246539  0.92674903  1  -0.022558  0  -0.002885  0.115299  0  3.928575  0
C  C315  1  0.99871621  0.51203550  0.92660629  1  -0.048218  0  -0.003074  0.115988  0  3.928212  0
C  C316  1  0.56248240  0.99874366  0.92686142  1  -0.057598  0  -0.002853  0.116616  0  3.929117  0
C  C317  1  0.48796455  0.00128465  0.07339341  1  -0.048287  0  -0.003068  0.116088  0  3.928288  0
C  C318  1  0.00125416  0.43751945  0.07313738  1  -0.057703  0  -0.002894  0.116455  0  3.929262  0
C  C319  1  0.43753615  0.48792060  0.07325515  1  -0.022891  0  -0.002873  0.115108  0  3.92875  0
C  C320  1  0.51345207  0.48654987  0.00000271  1  -0.650818  0  -0.017704  -0.278613  0  3.939084  0
C  C321  1  0.00000800  0.51341909  0.99986456  1  -0.604058  0  -0.017758  -0.280254  0  3.940367  0
C  C322  1  0.48658143  0.99999039  0.00013639  1  -0.603912  0  -0.017808  -0.280455  0  3.940255  0
C  C323  1  0.59388785  0.56077031  0.85002048  1  -0.09055  0  -0.241746  -0.408997  0  3.93466  0
C  C324  1  0.99563243  0.59374339  0.84978000  1  -0.036235  0  -0.241591  -0.408509  0  3.9344  0
C  C325  1  0.56079393  0.99551370  0.85005954  1  -0.054944  0  -0.242209  -0.410225  0  3.934093  0
C  C326  1  0.40625685  0.00437108  0.15021813  1  -0.036503  0  -0.241626  -0.408571  0  3.934434  0
C  C327  1  0.00448493  0.43920637  0.14994065  1  -0.054897  0  -0.242208  -0.410249  0  3.934077  0
C  C328  1  0.43922895  0.40611577  0.14998176  1  -0.090533  0  -0.241703  -0.408816  0  3.934585  0
C  C329  1  0.42835554  0.72409180  0.85300018  1  -0.101375  0  -0.249583  -0.404485  0  3.965157  0
C  C330  1  0.99444256  0.42835827  0.85293482  1  -0.093149  0  -0.249806  -0.40378  0  3.963992  0
C  C331  1  0.72404202  0.99472556  0.85302478  1  -0.076634  0  -0.250006  -0.405537  0  3.965346  0
C  C332  1  0.57163998  0.00556276  0.14706291  1  -0.093235  0  -0.249797  -0.403822  0  3.963856  0
C  C333  1  0.00527660  0.27595725  0.14697116  1  -0.07689  0  -0.250005  -0.405613  0  3.965402  0
C  C334  1  0.27590298  0.57164369  0.14700026  1  -0.101155  0  -0.249631  -0.404604  0  3.96521  0
C  C335  1  0.10177033  0.97706465  0.49069486  1  0.472201  0  0.041861  0.092474  0  3.95049  0
C  C336  1  0.43049239  0.10175117  0.49071119  1  0.469192  0  0.041615  0.091641  0  3.953798  0
C  C337  1  0.97712324  0.43040565  0.49067093  1  0.431678  0  0.041767  0.092162  0  3.951441  0
C  C338  1  0.89824803  0.56950789  0.50928492  1  0.465984  0  0.041705  0.091718  0  3.953788  0
C  C339  1  0.56959127  0.02287401  0.50932852  1  0.431414  0  0.041792  0.092155  0  3.951573  0
C  C340  1  0.02294009  0.89823350  0.50930275  1  0.472893  0  0.041873  0.092569  0  3.950517  0
C  C341  1  0.17872644  0.90232141  0.49146492  1  -0.032314  0  -0.079463  -0.16337  0  3.913814  0
C  C342  1  0.42748959  0.17868685  0.49150225  1  -0.017527  0  -0.07918  -0.161515  0  3.913671  0
C  C343  1  0.90241006  0.42746485  0.49137919  1  -0.050592  0  -0.079371  -0.162787  0  3.913729  0
C  C344  1  0.82131148  0.57250805  0.50849412  1  -0.017113  0  -0.079104  -0.16141  0  3.913579  0
C  C345  1  0.57253241  0.09758793  0.50862104  1  -0.050538  0  -0.079373  -0.162721  0  3.913509  0
C  C346  1  0.09768206  0.82127742  0.50853857  1  -0.032849  0  -0.079424  -0.163485  0  3.913661  0
C  C347  1  0.17787390  0.82212952  0.50000409  1  -0.009489  0  0.016539  0.130989  0  3.973263  0
C  C348  1  0.50000340  0.17778242  0.50005017  1  -0.009495  0  0.016735  0.130173  0  3.972351  0
C  C349  1  0.82221433  0.49999179  0.49995254  1  -0.009381  0  0.016803  0.130369  0  3.972288  0
C  C350  1  0.25874419  0.74125754  0.50000724  1  -0.028033  0  -0.013817  -0.063738  0  3.972484  0
C  C351  1  0.49998670  0.25866432  0.50000161  1  -0.007146  0  -0.014276  -0.064377  0  3.972732  0
C  C352  1  0.74133281  0.50000787  0.50000564  1  -0.007469  0  -0.014352  -0.064552  0  3.972658  0
C  C353  1  0.25564679  0.66204705  0.56758160  1  -0.03793  0  -0.014647  0.056202  0  3.944454  0
C  C354  1  0.51461458  0.25564538  0.56758955  1  -0.059189  0  -0.014381  0.056549  0  3.94398  0
C  C355  1  0.66217198  0.51466819  0.56765999  1  -0.005727  0  -0.013964  0.058484  0  3.942998  0
C  C356  1  0.74434991  0.48538072  0.43241763  1  -0.060056  0  -0.014372  0.056485  0  3.943978  0
C  C357  1  0.48532623  0.33782699  0.43234938  1  -0.005712  0  -0.014  0.058333  0  3.943305  0
C  C358  1  0.33795611  0.74434841  0.43243081  1  -0.038312  0  -0.014643  0.056356  0  3.944598  0
C  C359  1  0.33139644  0.58397992  0.56465718  1  -0.062144  0  -0.010106  0.098757  0  3.943402  0
C  C360  1  0.51986225  0.33139606  0.56462087  1  -0.026394  0  -0.010374  0.098403  0  3.943556  0
C  C361  1  0.58409634  0.51986243  0.56482143  1  -0.063037  0  -0.010112  0.098324  0  3.942623  0
C  C362  1  0.66860071  0.48013389  0.43538703  1  -0.045884  0  -0.010274  0.098664  0  3.943364  0
C  C363  1  0.48013408  0.41590367  0.43518624  1  -0.062938  0  -0.010147  0.098324  0  3.942742  0
C  C364  1  0.41601897  0.66860251  0.43535448  1  -0.062241  0  -0.010049  0.098702  0  3.943571  0
C  C365  1  0.41333749  0.58666028  0.50000598  1  -0.584934  0  -0.012793  -0.259092  0  3.926124  0
C  C366  1  0.50003882  0.41329413  0.49985626  1  -0.597109  0  -0.013057  -0.260628  0  3.925122  0
C  C367  1  0.58670333  0.49995726  0.50015217  1  -0.576988  0  -0.013089  -0.260674  0  3.92517  0
C  C368  1  0.32322150  0.50004698  0.63615083  1  -0.063612  0  -0.244316  -0.417113  0  3.976981  0
C  C369  1  0.54033194  0.32329751  0.63617406  1  -0.05554  0  -0.244109  -0.415064  0  3.974267  0
C  C370  1  0.50022127  0.54043208  0.63637323  1  -0.073996  0  -0.244396  -0.41715  0  3.976498  0
C  C371  1  0.67669764  0.45966554  0.36383336  1  -0.055775  0  -0.244173  -0.415321  0  3.974308  0
C  C372  1  0.45956857  0.49977647  0.36363441  1  -0.074384  0  -0.244357  -0.417001  0  3.976522  0
C  C373  1  0.49995558  0.67677229  0.36385972  1  -0.063412  0  -0.244284  -0.417214  0  3.97688  0
C  C374  1  0.17448092  0.65988347  0.64430419  1  -0.019368  0  -0.249136  -0.417542  0  3.976284  0
C  C375  1  0.52116780  0.17456492  0.64440073  1  -0.100447  0  -0.249479  -0.418065  0  3.977088  0
C  C376  1  0.66001723  0.52121757  0.64440889  1  -0.104262  0  -0.249883  -0.419311  0  3.977527  0
C  C377  1  0.82542955  0.47883203  0.35560554  1  -0.100046  0  -0.249522  -0.418076  0  3.976982  0
C  C378  1  0.47877743  0.33997909  0.35559988  1  -0.104544  0  -0.249841  -0.419186  0  3.977556  0
C  C379  1  0.34011759  0.82551529  0.35570318  1  -0.018974  0  -0.249166  -0.417685  0  3.976038  0
I  I380  1  0.77557668  0.00701629  0.61305453  1  -0.597223  0  -0.32601  -0.532782  0  1.089617  0
I  I381  1  0.60459417  0.77515778  0.61287413  1  -0.595484  0  -0.325304  -0.532326  0  1.091498  0
I  I382  1  0.00691936  0.60430563  0.61301039  1  -0.594556  0  -0.326001  -0.532886  0  1.090496  0
I  I383  1  0.22484249  0.39541522  0.38711985  1  -0.595489  0  -0.325287  -0.532304  0  1.091543  0
I  I384  1  0.39568793  0.99307709  0.38699435  1  -0.594554  0  -0.325993  -0.532897  0  1.090514  0
I  I385  1  0.99297871  0.22443008  0.38691305  1  -0.597109  0  -0.325977  -0.532762  0  1.089728  0
I  I386  1  0.06081553  0.06084321  0.81766907  1  -0.587696  0  -0.306644  -0.515025  0  1.102988  0
I  I387  1  0.93914567  0.93918635  0.18232990  1  -0.587657  0  -0.306653  -0.515034  0  1.102991  0
N  N388  1  0.83495287  0.14805278  0.39865003  1  -1.246079  0  -0.338388  -0.229965  0  3.583792  0
N  N389  1  0.61840401  0.83521078  0.39849065  1  -1.246373  0  -0.337853  -0.228867  0  3.581136  0
N  N390  1  0.14799157  0.61834805  0.39862396  1  -1.233246  0  -0.338483  -0.230134  0  3.582563  0
N  N391  1  0.16479246  0.38159088  0.60151240  1  -1.246742  0  -0.337861  -0.228891  0  3.581318  0
N  N392  1  0.38164247  0.85201581  0.60137732  1  -1.233218  0  -0.338483  -0.230191  0  3.582846  0
N  N393  1  0.85195203  0.16505012  0.60134330  1  -1.246331  0  -0.338378  -0.230031  0  3.583565  0
N  N394  1  0.02505150  0.97495323  0.49999767  1  -1.267844  0  -0.343273  -0.229296  0  3.568834  0
N  N395  1  0.50006051  0.02502919  0.49998723  1  -1.252257  0  -0.343393  -0.229454  0  3.568935  0
N  N396  1  0.97497035  0.49993893  0.50000710  1  -1.249311  0  -0.343509  -0.229552  0  3.568727  0
N  N397  1  0.12646182  0.87353790  0.00000015  1  -1.246769  0  -0.343962  -0.237114  0  3.589068  0
N  N398  1  0.99987223  0.12641388  0.00013678  1  -1.251557  0  -0.344132  -0.237353  0  3.588494  0
N  N399  1  0.87358348  0.00012979  0.99986352  1  -1.251395  0  -0.34413  -0.237366  0  3.588583  0
