# generated using pymatgen
data_CuSiH32C40(N4F3)2
_symmetry_space_group_name_H-M   'P 1'
_cell_length_a   14.46262789
_cell_length_b   16.14159711
_cell_length_c   16.88006916
_cell_angle_alpha   90.00039158
_cell_angle_beta   89.99975731
_cell_angle_gamma   91.58780175
_symmetry_Int_Tables_number   1
_chemical_formula_structural   CuSiH32C40(N4F3)2
_chemical_formula_sum   'Cu4 Si4 H128 C160 N32 F24'
_cell_volume   3939.13760529
_cell_formula_units_Z   4
loop_
 _symmetry_equiv_pos_site_id
 _symmetry_equiv_pos_as_xyz
  1  'x, y, z'
loop_
 _atom_site_type_symbol
 _atom_site_label
 _atom_site_symmetry_multiplicity
 _atom_site_fract_x
 _atom_site_fract_y
 _atom_site_fract_z
 _atom_site_occupancy
 _atom_site_pbe_bader_charge
 _atom_site_pbe_bader_spin_density
 _atom_site_pbe_cm5_charge
 _atom_site_pbe_ddec_charge
 _atom_site_pbe_ddec_spin_density
 _atom_site_pbe_ddec_sum_bond_order
 _atom_site_pbe_magmom
Cu  Cu0  1  0.49999963  0.00000033  0.50000178  1  1.079467  0.563378  0.787208  0.689104  0.727403  2.321513  0.561
Cu  Cu1  1  0.00000071  0.00000062  0.00000178  1  1.079497  0.56338  0.787231  0.689145  0.727406  2.321525  0.561
Cu  Cu2  1  0.50000021  0.49999849  0.50000045  1  1.080916  0.561126  0.782977  0.687154  0.724047  2.292458  0.559
Cu  Cu3  1  0.00000066  0.50000187  0.99999985  1  1.080926  0.561121  0.782999  0.68694  0.72404  2.292535  0.559
Si  Si4  1  0.49922758  0.24957113  0.50407308  1  3.196828  -0.000182  0.251544  1.720195  -0.00032  3.953925  0.0
Si  Si5  1  0.00077950  0.75042931  0.00407174  1  3.196683  -0.000182  0.251543  1.72  -0.00032  3.954294  0.0
Si  Si6  1  0.50077152  0.75042894  0.49592901  1  3.196763  -0.000182  0.251581  1.720127  -0.00032  3.954108  0.0
Si  Si7  1  0.99922519  0.24957328  0.99592619  1  3.196657  -0.000182  0.251603  1.719824  -0.00032  3.954475  0.0
H  H8  1  0.25499537  0.61745659  0.32114360  1  0.157478  0.00101  0.104927  0.10097  0.000548  1.097175  0.001
H  H9  1  0.24500393  0.38254294  0.82114495  1  0.157481  0.00101  0.104936  0.100939  0.000548  1.097182  0.001
H  H10  1  0.74500089  0.38253974  0.67885671  1  0.157455  0.00101  0.104931  0.100973  0.000548  1.097194  0.001
H  H11  1  0.75499163  0.61745339  0.17885239  1  0.157474  0.00101  0.10492  0.100983  0.000548  1.097218  0.001
H  H12  1  0.10724775  0.37005075  0.08297461  1  0.173972  0.002447  0.11846  0.103402  0.001162  1.056808  0.002
H  H13  1  0.39275326  0.62994277  0.58297822  1  0.174217  0.002447  0.11842  0.103335  0.001163  1.056984  0.002
H  H14  1  0.89275074  0.62995303  0.91702155  1  0.174053  0.002447  0.118431  0.103392  0.001163  1.056715  0.002
H  H15  1  0.60725046  0.37004742  0.41702327  1  0.173988  0.002446  0.118426  0.103382  0.001162  1.056742  0.002
H  H16  1  0.34883009  0.37375177  0.25512276  1  0.086444  0.001234  0.112414  0.117605  0.000651  0.991386  0.001
H  H17  1  0.15117162  0.62624854  0.75512545  1  0.089831  0.001228  0.112427  0.117639  0.000651  0.991384  0.001
H  H18  1  0.65116686  0.62624456  0.74487577  1  0.086516  0.001234  0.112428  0.117631  0.000651  0.991392  0.001
H  H19  1  0.84883232  0.37375156  0.24487189  1  0.091411  0.001228  0.112428  0.117672  0.000651  0.991322  0.001
H  H20  1  0.36418539  0.61327047  0.43449245  1  0.180856  0.002033  0.120478  0.101697  0.000941  1.025609  0.002
H  H21  1  0.13581623  0.38673421  0.93449778  1  0.180814  0.002034  0.120483  0.101662  0.000942  1.025595  0.002
H  H22  1  0.63581093  0.38672895  0.56550845  1  0.180749  0.002034  0.120468  0.101681  0.000942  1.025616  0.002
H  H23  1  0.86418430  0.61326835  0.06550371  1  0.180801  0.002034  0.12049  0.101713  0.000942  1.02555  0.002
H  H24  1  0.79320042  0.13725377  0.20281867  1  0.103581  0.00124  0.114528  0.120904  0.000656  0.988703  0.001
H  H25  1  0.70679638  0.86275071  0.70282033  1  0.10364  0.00124  0.114554  0.120882  0.000656  0.988734  0.001
H  H26  1  0.20679871  0.86274754  0.79718401  1  0.103569  0.00124  0.114532  0.120901  0.000656  0.98875  0.001
H  H27  1  0.29319925  0.13724871  0.29718590  1  0.103639  0.00124  0.114562  0.120919  0.000656  0.988794  0.001
H  H28  1  0.75973213  0.88264866  0.33512512  1  0.179883  0.000996  0.108071  0.109342  0.000545  1.073046  0.001
H  H29  1  0.74026859  0.11734315  0.83511943  1  0.180084  0.000996  0.108133  0.109504  0.000545  1.072939  0.001
H  H30  1  0.24026141  0.11735013  0.66487341  1  0.17989  0.000996  0.108057  0.109335  0.000545  1.073018  0.001
H  H31  1  0.25972972  0.88265257  0.16487969  1  0.179959  0.000996  0.108121  0.109479  0.000545  1.072882  0.001
H  H32  1  0.21559397  0.36305331  0.19553376  1  0.111226  0.001253  0.112862  0.118965  0.000667  0.99207  0.001
H  H33  1  0.28440308  0.63694222  0.69553781  1  0.11128  0.001253  0.112867  0.118958  0.000667  0.992027  0.001
H  H34  1  0.78440094  0.63694487  0.80446418  1  0.111233  0.001253  0.112845  0.118985  0.000667  0.992081  0.001
H  H35  1  0.71559378  0.36305040  0.30445953  1  0.111117  0.001252  0.112829  0.118912  0.000667  0.992133  0.001
H  H36  1  0.44739461  0.37667304  0.37486795  1  0.189243  0.002132  0.117521  0.10275  0.000994  1.042821  0.002
H  H37  1  0.05260519  0.62332997  0.87486921  1  0.189166  0.002132  0.117508  0.102762  0.000994  1.04275  0.002
H  H38  1  0.55260449  0.62332703  0.62513176  1  0.189226  0.002132  0.117548  0.102813  0.000994  1.042795  0.002
H  H39  1  0.94739809  0.37667137  0.12512754  1  0.189149  0.002132  0.117525  0.102775  0.000994  1.042779  0.002
H  H40  1  0.89550209  0.13011293  0.08656064  1  0.170801  0.00248  0.119532  0.104891  0.001178  1.053242  0.002
H  H41  1  0.60449380  0.86988762  0.58656331  1  0.170944  0.002479  0.11954  0.104949  0.001177  1.053377  0.002
H  H42  1  0.10450120  0.86988902  0.91344440  1  0.170922  0.002481  0.119565  0.104937  0.001178  1.053281  0.002
H  H43  1  0.39549831  0.13010930  0.41344291  1  0.170918  0.00248  0.119574  0.104918  0.001178  1.053307  0.002
H  H44  1  0.66658956  0.12477183  0.26413022  1  0.087604  0.001207  0.11362  0.121654  0.000636  0.993044  0.001
H  H45  1  0.83340519  0.87521572  0.76413150  1  0.087391  0.001207  0.113513  0.121487  0.000636  0.993243  0.001
H  H46  1  0.33341100  0.87523197  0.73587305  1  0.08778  0.001206  0.113653  0.121634  0.000636  0.993103  0.001
H  H47  1  0.16659025  0.12477502  0.23587414  1  0.087428  0.001207  0.113585  0.121548  0.000636  0.993249  0.001
H  H48  1  0.12010247  0.62758604  0.08232199  1  0.202104  0.002177  0.122966  0.112784  0.001047  1.029367  0.002
H  H49  1  0.37990681  0.37240630  0.58232811  1  0.201948  0.002177  0.122967  0.112719  0.001046  1.029246  0.002
H  H50  1  0.87990707  0.37241720  0.91767950  1  0.202111  0.002178  0.122966  0.112701  0.001047  1.029455  0.002
H  H51  1  0.62009484  0.62758388  0.41767101  1  0.202122  0.002177  0.122974  0.112836  0.001047  1.029431  0.002
H  H52  1  0.23056037  0.63131397  0.19545878  1  0.116817  0.00114  0.113908  0.125194  0.000586  1.02409  0.001
H  H53  1  0.26944912  0.36868164  0.69546646  1  0.116764  0.00114  0.113852  0.125116  0.000586  1.024135  0.001
H  H54  1  0.76944975  0.36868432  0.80454153  1  0.116839  0.00114  0.113892  0.125214  0.000586  1.023992  0.001
H  H55  1  0.73054771  0.63130973  0.30452910  1  0.116854  0.00114  0.113927  0.125243  0.000586  1.024025  0.001
H  H56  1  0.80393360  0.86989574  0.22018827  1  0.140898  0.00106  0.111746  0.118016  0.000559  1.052582  0.001
H  H57  1  0.69606514  0.13010640  0.72019052  1  0.140872  0.00106  0.111746  0.118005  0.000559  1.052589  0.001
H  H58  1  0.19605861  0.13010552  0.77980789  1  0.140838  0.00106  0.111759  0.118033  0.000559  1.052484  0.001
H  H59  1  0.30393464  0.86989305  0.27981097  1  0.140819  0.00106  0.111706  0.117933  0.000559  1.052679  0.001
H  H60  1  0.90887206  0.87377972  0.10337518  1  0.212252  0.002122  0.121052  0.110866  0.001016  1.038558  0.002
H  H61  1  0.59112582  0.12622035  0.60337779  1  0.212052  0.002123  0.121091  0.11089  0.001017  1.038524  0.002
H  H62  1  0.09112286  0.12621908  0.89662335  1  0.212056  0.002122  0.121101  0.110885  0.001016  1.038535  0.002
H  H63  1  0.40887462  0.87377787  0.39662311  1  0.212253  0.002122  0.121071  0.110892  0.001017  1.038545  0.002
H  H64  1  0.64496340  0.88609538  0.44456269  1  0.152167  0.002088  0.119471  0.106356  0.000946  1.033277  0.002
H  H65  1  0.85503895  0.11390031  0.94455833  1  0.152275  0.002089  0.119401  0.106233  0.000946  1.03342  0.002
H  H66  1  0.35503502  0.11390530  0.55543821  1  0.152188  0.002089  0.119425  0.10626  0.000946  1.033349  0.002
H  H67  1  0.14496430  0.88609978  0.05543842  1  0.152245  0.002088  0.119418  0.106239  0.000946  1.033477  0.002
H  H68  1  0.56219550  0.12178909  0.38012578  1  0.184756  0.002055  0.120218  0.106474  0.000952  1.03549  0.002
H  H69  1  0.93780502  0.87820304  0.88011899  1  0.184636  0.002055  0.12018  0.1065  0.000952  1.035386  0.002
H  H70  1  0.43780783  0.87821472  0.61988104  1  0.184499  0.002055  0.12019  0.10647  0.000952  1.035549  0.002
H  H71  1  0.06219403  0.12179455  0.11988131  1  0.184677  0.002055  0.120228  0.106552  0.000952  1.035365  0.002
H  H72  1  0.42198857  0.36451753  0.00130551  1  0.059129  2e-06  0.108252  0.113855  3e-06  1.000367  0.0
H  H73  1  0.07800540  0.63548403  0.50131564  1  0.058777  2e-06  0.108182  0.113735  3e-06  1.000462  0.0
H  H74  1  0.57800643  0.63548498  0.99870072  1  0.059128  2e-06  0.108214  0.113784  3e-06  1.000393  0.0
H  H75  1  0.92199574  0.36451482  0.49868822  1  0.058799  2e-06  0.108243  0.113814  3e-06  1.000376  0.0
H  H76  1  0.32222796  0.48114651  0.04024075  1  0.073019  -2.7e-05  0.102735  0.068386  -3.8e-05  1.012556  0.0
H  H77  1  0.17777284  0.51885971  0.54024738  1  0.07289  -2.7e-05  0.102826  0.068543  -3.8e-05  1.012667  0.0
H  H78  1  0.67777336  0.51886039  0.95976607  1  0.073191  -2.7e-05  0.102672  0.068392  -3.8e-05  1.012509  0.0
H  H79  1  0.82222415  0.48113848  0.45975767  1  0.072928  -2.7e-05  0.102744  0.068445  -3.8e-05  1.012475  0.0
H  H80  1  0.49823866  0.50574229  0.79268529  1  0.072934  -1.2e-05  0.098171  0.101181  -2.8e-05  1.040104  0.0
H  H81  1  0.00176217  0.49425767  0.29269295  1  0.073163  -1.2e-05  0.098221  0.101249  -2.8e-05  1.039987  0.0
H  H82  1  0.50175139  0.49425461  0.20731916  1  0.072775  -1.2e-05  0.098126  0.101102  -2.8e-05  1.040036  0.0
H  H83  1  0.99824247  0.50574244  0.70730854  1  0.073059  -1.2e-05  0.098208  0.101218  -2.8e-05  1.040046  0.0
H  H84  1  0.61325823  0.26301624  0.70400989  1  0.088455  1.7e-05  0.111527  0.093739  8e-06  1.005245  0.0
H  H85  1  0.88673965  0.73697462  0.20401476  1  0.088582  1.7e-05  0.11154  0.093717  8e-06  1.005393  0.0
H  H86  1  0.38674364  0.73698446  0.29599812  1  0.088302  1.7e-05  0.111492  0.093636  8e-06  1.00543  0.0
H  H87  1  0.11325740  0.26302667  0.79598969  1  0.088537  1.7e-05  0.111546  0.093751  8e-06  1.005349  0.0
H  H88  1  0.51036994  0.37524252  0.74167320  1  0.098338  -2.3e-05  0.105918  0.114064  -4.5e-05  1.007597  0.0
H  H89  1  0.98962644  0.62475108  0.24168112  1  0.098179  -2.3e-05  0.10595  0.114133  -4.5e-05  1.007561  0.0
H  H90  1  0.48962358  0.62475503  0.25833125  1  0.098066  -2.3e-05  0.105963  0.114116  -4.5e-05  1.007535  0.0
H  H91  1  0.01036857  0.37525144  0.75831800  1  0.098145  -2.3e-05  0.105943  0.114084  -4.5e-05  1.007601  0.0
H  H92  1  0.39486905  0.61561167  0.84023955  1  0.084834  1.4e-05  0.108022  0.073951  1e-05  0.980768  0.0
H  H93  1  0.10514068  0.38439488  0.34024315  1  0.085042  1.4e-05  0.108007  0.073964  1e-05  0.980824  0.0
H  H94  1  0.60512593  0.38438960  0.15976253  1  0.084872  1.4e-05  0.108006  0.073877  1e-05  0.980875  0.0
H  H95  1  0.89486467  0.61560647  0.65975834  1  0.084978  1.4e-05  0.10798  0.073925  1e-05  0.980839  0.0
H  H96  1  0.57394067  0.32312613  0.98677203  1  0.068248  6e-06  0.10598  0.113148  4e-06  1.033198  0.0
H  H97  1  0.92604923  0.67687907  0.48677637  1  0.068184  6e-06  0.105984  0.113132  4e-06  1.033293  0.0
H  H98  1  0.42604889  0.67688068  0.01323479  1  0.068499  6e-06  0.106007  0.113168  4e-06  1.033142  0.0
H  H99  1  0.07394977  0.32311666  0.51322571  1  0.06824  6e-06  0.105972  0.11311  4e-06  1.033271  0.0
H  H100  1  0.68020280  0.21628707  0.93829716  1  0.054095  1.9e-05  0.109764  0.078828  9e-06  0.999894  0.0
H  H101  1  0.81978591  0.78371591  0.43829903  1  0.054031  1.9e-05  0.109799  0.078944  9e-06  0.999851  0.0
H  H102  1  0.31979448  0.78372475  0.06171203  1  0.054125  1.9e-05  0.109731  0.078852  9e-06  0.999988  0.0
H  H103  1  0.18021312  0.21628105  0.56170483  1  0.05407  1.9e-05  0.109768  0.078871  9e-06  0.999906  0.0
H  H104  1  0.38276473  0.25213634  0.71621698  1  0.110503  1.7e-05  0.112311  0.08956  9e-06  0.996418  0.0
H  H105  1  0.11723288  0.74785747  0.21622053  1  0.110675  1.7e-05  0.112275  0.089539  9e-06  0.996427  0.0
H  H106  1  0.61724136  0.74786688  0.28377859  1  0.110541  1.7e-05  0.112287  0.089522  9e-06  0.996345  0.0
H  H107  1  0.88276000  0.25214255  0.78377621  1  0.110639  1.7e-05  0.112295  0.089563  9e-06  0.996342  0.0
H  H108  1  0.45982197  0.12262676  0.75086852  1  0.056351  -1.6e-05  0.105049  0.115258  -3.4e-05  1.004491  0.0
H  H109  1  0.04017205  0.87736914  0.25086610  1  0.056291  -1.6e-05  0.105037  0.115316  -3.4e-05  1.004435  0.0
H  H110  1  0.54018626  0.87737958  0.24912467  1  0.056448  -1.6e-05  0.105093  0.115365  -3.4e-05  1.004382  0.0
H  H111  1  0.95983061  0.12263591  0.74912828  1  0.056399  -1.6e-05  0.105066  0.115303  -3.4e-05  1.004446  0.0
H  H112  1  0.33133286  0.13533083  0.98175766  1  0.090059  -1e-06  0.105412  0.115198  -6e-06  1.004241  0.0
H  H113  1  0.16866526  0.86468222  0.48175172  1  0.089619  -1e-06  0.105367  0.115129  -6e-06  1.00435  0.0
H  H114  1  0.66867932  0.86466623  0.01823790  1  0.089917  -1e-06  0.105418  0.115172  -6e-06  1.004252  0.0
H  H115  1  0.83133045  0.13532093  0.51824266  1  0.089951  -1e-06  0.105356  0.115164  -6e-06  1.004305  0.0
H  H116  1  0.57231792  0.05649654  0.83423565  1  0.104336  8e-06  0.100379  0.107445  4e-06  1.04159  0.0
H  H117  1  0.92767956  0.94350516  0.33423402  1  0.104298  8e-06  0.10039  0.107456  4e-06  1.041646  0.0
H  H118  1  0.42768462  0.94350294  0.16574806  1  0.104822  8e-06  0.100332  0.107291  4e-06  1.041649  0.0
H  H119  1  0.07232438  0.05649494  0.66575740  1  0.104608  8e-06  0.100415  0.107436  4e-06  1.041598  0.0
H  H120  1  0.25957217  0.26560203  0.93816776  1  0.155092  1.9e-05  0.109281  0.09482  1e-05  1.006071  0.0
H  H121  1  0.24042747  0.73440824  0.43817078  1  0.153687  1.9e-05  0.109253  0.094835  1e-05  1.006035  0.0
H  H122  1  0.74043513  0.73439376  0.06182840  1  0.154873  1.9e-05  0.109239  0.094777  1e-05  1.00607  0.0
H  H123  1  0.75956677  0.26559117  0.56182716  1  0.154907  1.9e-05  0.109241  0.094744  1e-05  1.006155  0.0
H  H124  1  0.62285764  0.91215887  0.85932296  1  0.063683  -8e-06  0.101375  0.06497  -2.3e-05  1.015205  0.0
H  H125  1  0.87714255  0.08784550  0.35931771  1  0.063716  -8e-06  0.101362  0.064944  -2.3e-05  1.015226  0.0
H  H126  1  0.37715043  0.08784002  0.14066905  1  0.063474  -8e-06  0.101386  0.065067  -2.3e-05  1.015202  0.0
H  H127  1  0.12285305  0.91215268  0.64067904  1  0.06374  -8e-06  0.101362  0.064974  -2.3e-05  1.015119  0.0
H  H128  1  0.31312790  0.98807442  0.94625351  1  0.050772  -3.6e-05  0.101634  0.107701  -5.7e-05  1.020069  0.0
H  H129  1  0.18686872  0.01192535  0.44624728  1  0.050954  -3.6e-05  0.101612  0.107614  -5.7e-05  1.019983  0.0
H  H130  1  0.68688446  0.01193132  0.05374797  1  0.05103  -3.6e-05  0.101578  0.107645  -5.7e-05  1.020127  0.0
H  H131  1  0.81312969  0.98807471  0.55374592  1  0.050787  -3.6e-05  0.101629  0.107666  -5.7e-05  1.020048  0.0
H  H132  1  0.37238571  0.84602811  0.96239150  1  0.082332  2e-06  0.108163  0.073229  1e-06  1.009102  0.0
H  H133  1  0.12761645  0.15397553  0.46238641  1  0.082321  2e-06  0.108136  0.073225  1e-06  1.009057  0.0
H  H134  1  0.62762603  0.15398072  0.03761295  1  0.082246  2e-06  0.10814  0.073142  1e-06  1.009011  0.0
H  H135  1  0.87237780  0.84602388  0.53761627  1  0.082265  2e-06  0.108163  0.073205  1e-06  1.009039  0.0
C  C136  1  0.29350654  0.49602811  0.27667471  1  -0.023388  -0.003353  0.011598  0.095501  -0.003757  3.986208  -0.002
C  C137  1  0.20649430  0.50396926  0.77667640  1  -0.023375  -0.003353  0.011642  0.09557  -0.003756  3.98619  -0.002
C  C138  1  0.70648973  0.50396884  0.72332618  1  -0.023445  -0.003353  0.011564  0.095571  -0.003757  3.986235  -0.002
C  C139  1  0.79350469  0.49602585  0.22332035  1  -0.023403  -0.003353  0.011692  0.095595  -0.003757  3.98604  -0.002
C  C140  1  0.29780501  0.56321360  0.32929201  1  -0.030994  0.00609  -0.076171  -0.15126  0.004088  3.911138  0.005
C  C141  1  0.20219636  0.43678786  0.82929446  1  -0.031016  0.00609  -0.076189  -0.151191  0.004088  3.911014  0.005
C  C142  1  0.70219405  0.43678460  0.67071067  1  -0.031015  0.006091  -0.076213  -0.151385  0.004089  3.911238  0.005
C  C143  1  0.79780061  0.56320972  0.17070466  1  -0.030933  0.00609  -0.076173  -0.151259  0.004088  3.911062  0.005
C  C144  1  0.23213360  0.49709045  0.20693578  1  -0.046537  -0.002952  0.013126  0.097215  -0.00333  3.99324  -0.002
C  C145  1  0.26786822  0.50290457  0.70693961  1  -0.046507  -0.002952  0.013036  0.096988  -0.00333  3.993626  -0.002
C  C146  1  0.76786756  0.50290902  0.79306216  1  -0.046661  -0.002951  0.013153  0.097201  -0.00333  3.993392  -0.002
C  C147  1  0.73213005  0.49708929  0.29305655  1  -0.0465  -0.002951  0.013139  0.097173  -0.003329  3.993219  -0.002
C  C148  1  0.72425409  0.00436505  0.29002713  1  -0.006278  -0.003277  0.011749  0.096872  -0.003672  3.989986  -0.002
C  C149  1  0.77574833  0.99563141  0.79002644  1  -0.005719  -0.003277  0.011773  0.096882  -0.003671  3.990143  -0.002
C  C150  1  0.27574290  0.99563376  0.70997199  1  -0.006226  -0.003278  0.011719  0.096814  -0.003672  3.990008  -0.002
C  C151  1  0.22425420  0.00436744  0.20997327  1  -0.005816  -0.003277  0.011724  0.096743  -0.003672  3.990215  -0.002
C  C152  1  0.13570708  0.42662629  0.10970093  1  0.439923  -0.000144  0.046936  0.080952  -0.000637  3.936269  0.0
C  C153  1  0.36429797  0.57336807  0.60970250  1  0.439757  -0.000146  0.046938  0.081024  -0.000639  3.93686  0.0
C  C154  1  0.86429551  0.57337504  0.89029759  1  0.439699  -0.000144  0.047054  0.081193  -0.000638  3.936242  0.0
C  C155  1  0.63570646  0.42662275  0.39029543  1  0.439764  -0.000143  0.047048  0.081144  -0.000636  3.936218  0.0
C  C156  1  0.78765226  0.00357062  0.22168606  1  -0.02096  -0.003109  0.01234  0.09376  -0.003486  3.990252  -0.002
C  C157  1  0.71234505  0.99642966  0.72168561  1  -0.021183  -0.003109  0.012298  0.093659  -0.003486  3.990021  -0.002
C  C158  1  0.21234203  0.99643065  0.77831425  1  -0.021242  -0.003109  0.012324  0.093698  -0.003486  3.990275  -0.002
C  C159  1  0.28765264  0.00356916  0.27831588  1  -0.021115  -0.003109  0.012274  0.093676  -0.003486  3.990149  -0.002
C  C160  1  0.34851520  0.42801533  0.29349304  1  -0.055042  0.006144  -0.079107  -0.166805  0.004082  3.93998  0.005
C  C161  1  0.15148631  0.57198463  0.79349301  1  -0.058361  0.006149  -0.079149  -0.166919  0.004081  3.939972  0.005
C  C162  1  0.65148249  0.57198348  0.70650845  1  -0.055109  0.006144  -0.079161  -0.166893  0.004082  3.94014  0.005
C  C163  1  0.84851689  0.42801361  0.20650374  1  -0.059922  0.006149  -0.079159  -0.166915  0.004081  3.939939  0.005
C  C164  1  0.35722693  0.56098616  0.39383369  1  0.418188  -0.000938  0.053368  0.100799  -0.001453  3.888479  -0.001
C  C165  1  0.14277278  0.43901698  0.89383637  1  0.41822  -0.000939  0.053349  0.100717  -0.001454  3.888458  -0.001
C  C166  1  0.64276936  0.43901203  0.60616780  1  0.418547  -0.00094  0.053462  0.10093  -0.001454  3.888393  -0.001
C  C167  1  0.85722632  0.56098309  0.10616215  1  0.41826  -0.000939  0.053361  0.100774  -0.001454  3.888358  -0.001
C  C168  1  0.81538536  0.07687318  0.18278060  1  -0.02697  0.006116  -0.077402  -0.164657  0.004051  3.941786  0.005
C  C169  1  0.68461141  0.92312558  0.68278036  1  -0.027016  0.006115  -0.077426  -0.16459  0.004051  3.9418  0.005
C  C170  1  0.18461654  0.92312877  0.81722030  1  -0.026926  0.006116  -0.077396  -0.16469  0.004051  3.94196  0.005
C  C171  1  0.31538481  0.07686950  0.31722172  1  -0.026822  0.006115  -0.077399  -0.164706  0.004051  3.941968  0.005
C  C172  1  0.71765189  0.93727136  0.34285876  1  -0.040894  0.006058  -0.077226  -0.161579  0.004059  3.911864  0.005
C  C173  1  0.78235088  0.06272115  0.84285374  1  -0.041033  0.006058  -0.077378  -0.161993  0.004059  3.912227  0.005
C  C174  1  0.28234373  0.06272807  0.65713977  1  -0.041066  0.006059  -0.077237  -0.161618  0.004059  3.911864  0.005
C  C175  1  0.21765024  0.93727646  0.15714301  1  -0.041057  0.006058  -0.077331  -0.161824  0.004059  3.91209  0.005
C  C176  1  0.19743807  0.42348832  0.17253764  1  -0.069495  0.005891  -0.080753  -0.172622  0.003955  3.948768  0.005
C  C177  1  0.30256735  0.57650525  0.67254419  1  -0.069377  0.005893  -0.080707  -0.172482  0.003956  3.948858  0.005
C  C178  1  0.80256166  0.57650866  0.82746030  1  -0.069461  0.005892  -0.08076  -0.172738  0.003956  3.949016  0.005
C  C179  1  0.69743430  0.42348493  0.32745611  1  -0.069592  0.005891  -0.080743  -0.172579  0.003955  3.948828  0.005
C  C180  1  0.40543423  0.42948969  0.35976459  1  0.460875  -0.000618  0.050724  0.096979  -0.000981  3.912929  0.0
C  C181  1  0.09456627  0.57051074  0.85976416  1  0.460901  -0.000617  0.050733  0.097032  -0.00098  3.912765  0.0
C  C182  1  0.59456485  0.57050976  0.64023808  1  0.461051  -0.000616  0.050716  0.096937  -0.000979  3.913045  0.0
C  C183  1  0.90543626  0.42948811  0.14023259  1  0.460828  -0.000617  0.050751  0.096936  -0.00098  3.912966  0.0
C  C184  1  0.87337413  0.07375108  0.11745018  1  0.472637  -0.00034  0.048058  0.08339  -0.000664  3.925297  0.0
C  C185  1  0.62662363  0.92624660  0.61745077  1  0.471894  -0.000337  0.048043  0.08335  -0.000664  3.925478  0.0
C  C186  1  0.12662917  0.92625149  0.88255308  1  0.472594  -0.000341  0.048016  0.083393  -0.000664  3.925279  0.0
C  C187  1  0.37337123  0.07374910  0.38255427  1  0.472175  -0.000338  0.048008  0.083414  -0.000664  3.925373  0.0
C  C188  1  0.66687716  0.07152082  0.30370927  1  -0.060658  0.00579  -0.078861  -0.167898  0.003885  3.936049  0.005
C  C189  1  0.83312024  0.92847013  0.80370616  1  -0.060253  0.005791  -0.078632  -0.167471  0.003885  3.935777  0.005
C  C190  1  0.33312332  0.92847926  0.69629400  1  -0.0609  0.005791  -0.078768  -0.167683  0.003885  3.936144  0.005
C  C191  1  0.16687949  0.07152685  0.19629474  1  -0.060707  0.005791  -0.078733  -0.167538  0.003885  3.935987  0.005
C  C192  1  0.14305233  0.57062421  0.10972745  1  0.443513  -0.000352  0.055015  0.101174  -0.000883  3.884164  0.0
C  C193  1  0.35695201  0.42936952  0.60973285  1  0.443073  -0.000351  0.054997  0.101339  -0.000883  3.883682  0.0
C  C194  1  0.85695304  0.42937838  0.89027285  1  0.443369  -0.000352  0.055165  0.101312  -0.000883  3.884331  0.0
C  C195  1  0.64304759  0.57062188  0.39026686  1  0.443336  -0.000354  0.054985  0.101066  -0.000884  3.884105  0.0
C  C196  1  0.20469970  0.57184909  0.17292969  1  0.024766  0.005791  -0.07312  -0.153566  0.003891  3.890941  0.005
C  C197  1  0.29530852  0.42814635  0.67293649  1  0.025061  0.00579  -0.072959  -0.153349  0.00389  3.890839  0.005
C  C198  1  0.79530560  0.42814978  0.82707120  1  0.024957  0.005791  -0.073137  -0.153587  0.003891  3.890846  0.005
C  C199  1  0.70469179  0.57184567  0.32706085  1  0.024825  0.005792  -0.073077  -0.153491  0.00389  3.890602  0.005
C  C200  1  0.82211186  0.92915122  0.19254932  1  -0.100241  0.005842  -0.076926  -0.162677  0.003905  3.916889  0.005
C  C201  1  0.67788701  0.07085072  0.69255244  1  -0.100226  0.005843  -0.076912  -0.162606  0.003906  3.916587  0.005
C  C202  1  0.17788105  0.07085066  0.80744802  1  -0.100061  0.005842  -0.076884  -0.162579  0.003905  3.916737  0.005
C  C203  1  0.32211274  0.92914749  0.30744905  1  -0.100166  0.005843  -0.076831  -0.162435  0.003905  3.916746  0.005
C  C204  1  0.88058570  0.93040609  0.12726572  1  0.422268  -0.000772  0.050396  0.094045  -0.001272  3.891682  0.0
C  C205  1  0.61941276  0.06959415  0.62726845  1  0.422469  -0.000772  0.050405  0.094124  -0.001272  3.891682  0.0
C  C206  1  0.11940999  0.06959581  0.87273162  1  0.42243  -0.000771  0.050371  0.094042  -0.001271  3.89171  0.0
C  C207  1  0.38058421  0.93040343  0.37273304  1  0.422283  -0.000773  0.050404  0.093958  -0.001271  3.891766  0.0
C  C208  1  0.65451337  0.93900395  0.40481241  1  0.459942  -0.00065  0.050461  0.094442  -0.00107  3.897954  0.0
C  C209  1  0.84549121  0.06099025  0.90480715  1  0.459521  -0.000651  0.050629  0.094863  -0.001071  3.898021  0.0
C  C210  1  0.34548433  0.06099549  0.59518789  1  0.460025  -0.00065  0.05058  0.094646  -0.00107  3.897984  0.0
C  C211  1  0.15451267  0.93900738  0.09518960  1  0.459521  -0.00065  0.050522  0.094696  -0.001071  3.897994  0.0
C  C212  1  0.60648956  0.06982921  0.36758707  1  0.456337  -0.000766  0.051523  0.100852  -0.001191  3.909235  0.0
C  C213  1  0.89351105  0.93016470  0.86758257  1  0.455947  -0.000764  0.051379  0.100575  -0.001189  3.909202  0.0
C  C214  1  0.39351025  0.93017211  0.63241797  1  0.456604  -0.000766  0.051427  0.100719  -0.00119  3.909394  0.0
C  C215  1  0.10649078  0.06983353  0.13241833  1  0.456416  -0.000766  0.05139  0.100559  -0.00119  3.909321  0.0
C  C216  1  0.41854960  0.41939082  0.96389713  1  -0.020984  -5.1e-05  -0.08202  -0.170749  -5.1e-05  3.93847  0.0
C  C217  1  0.08144841  0.58061342  0.46390506  1  -0.020838  -5.1e-05  -0.08196  -0.170507  -5.1e-05  3.938217  0.0
C  C218  1  0.58144609  0.58061108  0.03610910  1  -0.020853  -5.1e-05  -0.081996  -0.170595  -5.1e-05  3.938463  0.0
C  C219  1  0.91855342  0.41938542  0.53609762  1  -0.020945  -5.1e-05  -0.081993  -0.170604  -5.1e-05  3.938253  0.0
C  C220  1  0.46957608  0.42502349  0.89330611  1  -0.041238  7e-06  0.009822  0.105296  9e-06  3.977819  0.0
C  C221  1  0.03041804  0.57497713  0.39331360  1  -0.04143  7e-06  0.009969  0.105505  9e-06  3.978001  0.0
C  C222  1  0.53041267  0.57497774  0.10669834  1  -0.041445  7e-06  0.009895  0.105274  9e-06  3.978297  0.0
C  C223  1  0.96958380  0.42502172  0.60668848  1  -0.041486  7e-06  0.009924  0.105437  9e-06  3.978199  0.0
C  C224  1  0.36232245  0.48447315  0.98536300  1  0.527248  -2.3e-05  0.038087  0.091316  -4.2e-05  4.006131  0.0
C  C225  1  0.13767684  0.51553126  0.48537030  1  0.527179  -2.3e-05  0.038017  0.090957  -4.2e-05  4.006449  0.0
C  C226  1  0.63767401  0.51553248  0.01464382  1  0.527016  -2.3e-05  0.038212  0.091246  -4.2e-05  4.006115  0.0
C  C227  1  0.86232428  0.48446634  0.51463356  1  0.527372  -2.3e-05  0.038131  0.091225  -4.2e-05  4.006112  0.0
C  C228  1  0.45981328  0.49698557  0.84774731  1  -0.053981  -5.5e-05  -0.089889  -0.18033  -7e-05  3.952411  0.0
C  C229  1  0.04018664  0.50301725  0.34775607  1  -0.054111  -5.5e-05  -0.090022  -0.180503  -7e-05  3.952635  0.0
C  C230  1  0.54017754  0.50301568  0.15225418  1  -0.054092  -5.5e-05  -0.089908  -0.180331  -7e-05  3.952288  0.0
C  C231  1  0.95981729  0.49698223  0.65224661  1  -0.054167  -5.5e-05  -0.09002  -0.180449  -7e-05  3.952696  0.0
C  C232  1  0.60494109  0.27841797  0.76647415  1  0.520024  3.7e-05  0.040084  0.085829  3.6e-05  3.991564  0.0
C  C233  1  0.89505522  0.72157828  0.26647712  1  0.525279  3.7e-05  0.040093  0.085924  3.6e-05  3.991748  0.0
C  C234  1  0.39505805  0.72158396  0.23353267  1  0.525156  3.7e-05  0.040039  0.085803  3.6e-05  3.991867  0.0
C  C235  1  0.10494255  0.27842426  0.73352556  1  0.525285  3.7e-05  0.040154  0.085915  3.6e-05  3.991643  0.0
C  C236  1  0.54650675  0.34184257  0.78784286  1  -0.081397  2.5e-05  -0.084247  -0.171916  2e-06  3.949159  0.0
C  C237  1  0.95348945  0.65815322  0.28784816  1  -0.081509  2.5e-05  -0.084314  -0.172029  2e-06  3.949064  0.0
C  C238  1  0.45348820  0.65815747  0.21216159  1  -0.081664  2.5e-05  -0.084242  -0.171905  2e-06  3.949144  0.0
C  C239  1  0.04650895  0.34184623  0.71215273  1  -0.081564  2.5e-05  -0.084333  -0.171962  2e-06  3.94913  0.0
C  C240  1  0.53192449  0.35906996  0.86818444  1  0.015899  -1.2e-05  0.007431  0.095538  -1.5e-05  3.973938  0.0
C  C241  1  0.96807142  0.64093010  0.36819313  1  0.015854  -1.2e-05  0.007405  0.095388  -1.5e-05  3.973934  0.0
C  C242  1  0.46806768  0.64092943  0.13182001  1  0.016083  -1.2e-05  0.00745  0.095578  -1.5e-05  3.974187  0.0
C  C243  1  0.03192973  0.35906874  0.63180777  1  0.015856  -1.2e-05  0.007437  0.095412  -1.5e-05  3.974132  0.0
C  C244  1  0.40218303  0.55875179  0.87468886  1  0.475345  7e-06  0.034437  0.080064  -7e-06  4.037873  0.0
C  C245  1  0.09781954  0.44125124  0.37469522  1  0.475671  7e-06  0.034472  0.079949  -7e-06  4.037846  0.0
C  C246  1  0.59781263  0.44124888  0.12531204  1  0.475505  7e-06  0.034483  0.08015  -7e-06  4.037789  0.0
C  C247  1  0.90218440  0.55874886  0.62530745  1  0.475723  7e-06  0.034509  0.080041  -7e-06  4.037745  0.0
C  C248  1  0.57960209  0.31136124  0.92351987  1  0.002218  4.6e-05  -0.082253  -0.165263  3.2e-05  3.935138  0.0
C  C249  1  0.92038872  0.68863981  0.42352371  1  0.002804  4.6e-05  -0.082251  -0.165181  3.2e-05  3.935593  0.0
C  C250  1  0.42038878  0.68864187  0.07648873  1  0.002586  4.6e-05  -0.082378  -0.165295  3.2e-05  3.935334  0.0
C  C251  1  0.07961033  0.31135840  0.57647777  1  0.00248  4.6e-05  -0.082229  -0.16514  3.2e-05  3.93544  0.0
C  C252  1  0.63893331  0.25118518  0.89632003  1  0.471435  7e-06  0.040303  0.087524  4e-06  3.996529  0.0
C  C253  1  0.86105831  0.74881506  0.39632449  1  0.470994  7e-06  0.040258  0.087337  4e-06  3.996714  0.0
C  C254  1  0.36106108  0.74882105  0.10368856  1  0.470802  7e-06  0.040428  0.087548  4e-06  3.996985  0.0
C  C255  1  0.13894145  0.25118378  0.60367937  1  0.471344  7e-06  0.040309  0.087435  4e-06  3.996872  0.0
C  C256  1  0.37296877  0.22562618  0.77528598  1  0.489594  1.2e-05  0.042788  0.087891  1.8e-05  4.001832  0.0
C  C257  1  0.12702655  0.77437113  0.27528790  1  0.489401  1.2e-05  0.042744  0.087907  1.8e-05  4.001828  0.0
C  C258  1  0.62703937  0.77437643  0.22470662  1  0.489735  1.2e-05  0.042816  0.088101  1.8e-05  4.001819  0.0
C  C259  1  0.87296773  0.22562952  0.72470589  1  0.489782  1.2e-05  0.042789  0.088074  1.8e-05  4.001692  0.0
C  C260  1  0.40117805  0.11682641  0.86937997  1  -0.022971  -9e-06  0.004217  0.092955  -1.4e-05  3.996666  0.0
C  C261  1  0.09881626  0.88317714  0.36937915  1  -0.023331  -9e-06  0.004275  0.093059  -1.4e-05  3.996591  0.0
C  C262  1  0.59883285  0.88317560  0.13060907  1  -0.022077  -9e-06  0.004064  0.092828  -1.4e-05  3.996648  0.0
C  C263  1  0.90118290  0.11682541  0.63061464  1  -0.022737  -9e-06  0.004232  0.092938  -1.4e-05  3.996709  0.0
C  C264  1  0.41661979  0.15247077  0.79472101  1  -0.006361  2.2e-05  -0.085784  -0.171063  2e-06  3.943091  0.0
C  C265  1  0.08337686  0.84752855  0.29472001  1  -0.006098  2.2e-05  -0.085763  -0.171116  2e-06  3.943219  0.0
C  C266  1  0.58338907  0.84753309  0.20527041  1  -0.007065  2.2e-05  -0.085778  -0.171127  1e-06  3.942887  0.0
C  C267  1  0.91662439  0.15247525  0.70527319  1  -0.006888  2.2e-05  -0.08572  -0.171034  1e-06  3.942911  0.0
C  C268  1  0.34464747  0.15922240  0.92236282  1  -0.040453  3.4e-05  -0.086334  -0.175911  1.6e-05  3.95696  0.0
C  C269  1  0.15535011  0.84078465  0.42236151  1  -0.039887  3.4e-05  -0.086266  -0.17581  1.6e-05  3.956822  0.0
C  C270  1  0.65536403  0.84077590  0.07763334  1  -0.040547  3.4e-05  -0.086315  -0.175851  1.6e-05  3.957039  0.0
C  C271  1  0.84464562  0.15921911  0.57763465  1  -0.040399  3.4e-05  -0.086366  -0.176055  1.6e-05  3.957033  0.0
C  C272  1  0.43771693  0.03457795  0.88780492  1  0.004307  -4e-06  0.008208  0.106131  -9e-06  3.981518  0.0
C  C273  1  0.06228073  0.96542514  0.38779943  1  0.004222  -4e-06  0.008176  0.105996  -9e-06  3.981798  0.0
C  C274  1  0.56229045  0.96542156  0.11218946  1  0.004481  -4e-06  0.00831  0.106093  -9e-06  3.981682  0.0
C  C275  1  0.93771979  0.03457680  0.61219258  1  0.003979  -4e-06  0.008197  0.106107  -9e-06  3.981606  0.0
C  C276  1  0.52601043  0.01153754  0.86323606  1  -0.057084  1.2e-05  -0.090247  -0.182507  -1e-06  3.944545  0.0
C  C277  1  0.97398486  0.98846497  0.36323160  1  -0.056451  1.2e-05  -0.090306  -0.182608  -1e-06  3.944744  0.0
C  C278  1  0.47399282  0.98846256  0.13675239  1  -0.057577  1.2e-05  -0.090219  -0.182296  -1e-06  3.944657  0.0
C  C279  1  0.02601425  0.01153572  0.63675982  1  -0.056934  1.2e-05  -0.090271  -0.182528  -1e-06  3.94458  0.0
C  C280  1  0.30543430  0.23288896  0.89818728  1  0.423409  -2e-06  0.03952  0.083863  -6e-06  3.978092  0.0
C  C281  1  0.19456198  0.76711667  0.39819009  1  0.425016  -2e-06  0.039558  0.083877  -6e-06  3.978023  0.0
C  C282  1  0.69457581  0.76710871  0.10180828  1  0.423703  -2e-06  0.039658  0.08411  -6e-06  3.978017  0.0
C  C283  1  0.80543092  0.23288459  0.60180725  1  0.423723  -2e-06  0.039688  0.08428  -6e-06  3.978014  0.0
C  C284  1  0.55379899  0.93082802  0.87703813  1  0.485935  -8e-06  0.030657  0.085753  -1.4e-05  4.029823  0.0
C  C285  1  0.94620038  0.06917462  0.37703309  1  0.485308  -8e-06  0.030702  0.085802  -1.4e-05  4.029944  0.0
C  C286  1  0.44620772  0.06917211  0.12295507  1  0.486203  -8e-06  0.03068  0.085658  -1.4e-05  4.029903  0.0
C  C287  1  0.05379660  0.93082358  0.62296129  1  0.48589  -8e-06  0.030706  0.085844  -1.4e-05  4.029702  0.0
C  C288  1  0.38260958  0.97410956  0.92624217  1  -0.107215  -1.5e-05  -0.089421  -0.180221  -2.7e-05  3.958097  0.0
C  C289  1  0.11738717  0.02589193  0.42623746  1  -0.107188  -1.5e-05  -0.089349  -0.180002  -2.7e-05  3.957915  0.0
C  C290  1  0.61739925  0.02589305  0.07375577  1  -0.10759  -1.5e-05  -0.089372  -0.18021  -2.7e-05  3.958185  0.0
C  C291  1  0.88261056  0.97410875  0.57375573  1  -0.107174  -1.5e-05  -0.089438  -0.180196  -2.7e-05  3.958183  0.0
C  C292  1  0.41599228  0.89448544  0.93526965  1  0.532682  1.2e-05  0.034604  0.08682  1.2e-05  4.024357  0.0
C  C293  1  0.08400723  0.10551800  0.43526500  1  0.532671  1.2e-05  0.034558  0.086689  1.2e-05  4.024308  0.0
C  C294  1  0.58401593  0.10552028  0.06473183  1  0.532551  1.2e-05  0.034742  0.087119  1.2e-05  4.024201  0.0
C  C295  1  0.91598843  0.89448328  0.56473294  1  0.532619  1.2e-05  0.034696  0.086974  1.2e-05  4.024122  0.0
N  N296  1  0.59992114  0.00418815  0.41676735  1  -1.231913  0.094529  -0.341941  -0.218112  0.062968  3.60031  0.083
N  N297  1  0.90008134  0.99580735  0.91676325  1  -1.231788  0.094527  -0.341872  -0.218162  0.062966  3.600436  0.083
N  N298  1  0.40007729  0.99581315  0.58323650  1  -1.231742  0.094532  -0.341958  -0.218175  0.06297  3.600276  0.083
N  N299  1  0.09992121  0.00419212  0.08323646  1  -1.231741  0.094533  -0.34186  -0.218084  0.06297  3.60039  0.083
N  N300  1  0.90538314  0.00151883  0.09004301  1  -1.206274  0.096434  -0.337929  -0.222536  0.064119  3.587665  0.085
N  N301  1  0.59461624  0.99848363  0.59004419  1  -1.205625  0.096438  -0.337954  -0.222641  0.064123  3.587714  0.085
N  N302  1  0.09461808  0.99848311  0.90995848  1  -1.206308  0.09644  -0.337984  -0.222601  0.064123  3.587752  0.085
N  N303  1  0.40538077  0.00151580  0.40995908  1  -1.20606  0.096437  -0.337977  -0.222536  0.064122  3.587746  0.085
N  N304  1  0.10758333  0.49910393  0.07964803  1  -1.219534  0.096794  -0.333909  -0.220149  0.064455  3.572171  0.085
N  N305  1  0.39242331  0.50089332  0.57965257  1  -1.219412  0.096794  -0.333889  -0.220265  0.064455  3.572523  0.085
N  N306  1  0.89241724  0.50089987  0.92035109  1  -1.219344  0.096797  -0.334068  -0.220367  0.064457  3.572584  0.085
N  N307  1  0.60758258  0.49910122  0.42034951  1  -1.219066  0.096788  -0.334033  -0.220312  0.064451  3.572356  0.085
N  N308  1  0.41054570  0.49561726  0.40845121  1  -1.203428  0.094415  -0.340681  -0.217485  0.062793  3.599624  0.083
N  N309  1  0.08945737  0.50438477  0.90845451  1  -1.20352  0.094413  -0.340706  -0.217546  0.062792  3.599723  0.083
N  N310  1  0.58945406  0.50438157  0.59155028  1  -1.20377  0.094425  -0.340732  -0.21755  0.062799  3.599702  0.083
N  N311  1  0.91054522  0.49561656  0.09154401  1  -1.203595  0.094417  -0.340767  -0.217605  0.062795  3.599775  0.083
N  N312  1  0.35361480  0.55376063  0.94231365  1  -1.199702  -2.5e-05  -0.329016  -0.278215  -3.6e-05  3.332804  0.0
N  N313  1  0.14638889  0.44624537  0.44231987  1  -1.199645  -2.5e-05  -0.329083  -0.278037  -3.6e-05  3.332834  0.0
N  N314  1  0.64638230  0.44624252  0.05769258  1  -1.199258  -2.5e-05  -0.329063  -0.278124  -3.6e-05  3.332874  0.0
N  N315  1  0.85361231  0.55375596  0.55768339  1  -1.199526  -2.5e-05  -0.329137  -0.278238  -3.6e-05  3.332713  0.0
N  N316  1  0.65137875  0.23331183  0.81935878  1  -1.188827  0.000548  -0.325473  -0.285137  0.000354  3.37792  0.0
N  N317  1  0.84861384  0.76668415  0.31935806  1  -1.193981  0.000548  -0.325443  -0.285078  0.000354  3.37791  0.0
N  N318  1  0.34861906  0.76669257  0.18065041  1  -1.193669  0.000548  -0.325479  -0.285138  0.000354  3.378224  0.0
N  N319  1  0.15138455  0.23331529  0.68064462  1  -1.194046  0.000548  -0.325493  -0.285145  0.000354  3.377962  0.0
N  N320  1  0.31790228  0.26570997  0.82553008  1  -1.207531  0.000528  -0.318067  -0.267475  0.000342  3.367701  0.0
N  N321  1  0.18209699  0.73428959  0.32553450  1  -1.207664  0.000528  -0.318077  -0.267548  0.000342  3.367406  0.0
N  N322  1  0.68210653  0.73429141  0.17446430  1  -1.207726  0.000528  -0.318131  -0.267794  0.000342  3.367915  0.0
N  N323  1  0.81789721  0.26570797  0.67446107  1  -1.207623  0.000528  -0.318182  -0.267904  0.000342  3.367903  0.0
N  N324  1  0.50015174  0.87180484  0.91143244  1  -1.191803  1e-06  -0.340062  -0.293743  2e-06  3.313578  0.0
N  N325  1  0.99984683  0.12820051  0.41142937  1  -1.191905  1e-06  -0.340014  -0.293609  2e-06  3.313476  0.0
N  N326  1  0.49985574  0.12819900  0.08856490  1  -1.191771  1e-06  -0.340227  -0.293938  2e-06  3.313663  0.0
N  N327  1  0.00014745  0.87180076  0.58856974  1  -1.19186  1e-06  -0.340183  -0.293908  2e-06  3.313474  0.0
F  F328  1  0.50742307  0.14272798  0.50325044  1  -0.841946  -0.001579  -0.210072  -0.538847  -0.0017  1.321713  0.0
F  F329  1  0.99258086  0.85727390  0.00325157  1  -0.841885  -0.001579  -0.210088  -0.538813  -0.0017  1.321752  0.0
F  F330  1  0.49257329  0.85727331  0.49675046  1  -0.841973  -0.001579  -0.210066  -0.538838  -0.0017  1.321714  0.0
F  F331  1  0.00742728  0.14272871  0.99675051  1  -0.841894  -0.001578  -0.210088  -0.538841  -0.0017  1.321719  0.0
F  F332  1  0.49160934  0.35615457  0.50365875  1  -0.83741  -0.001556  -0.208142  -0.536961  -0.001657  1.313862  0.0
F  F333  1  0.00839779  0.64384834  0.00365906  1  -0.837341  -0.001555  -0.208127  -0.536929  -0.001657  1.313999  0.0
F  F334  1  0.50839048  0.64384674  0.49634215  1  -0.837552  -0.001555  -0.208117  -0.53695  -0.001657  1.31392  0.0
F  F335  1  0.99160413  0.35615422  0.99633887  1  -0.837373  -0.001555  -0.208128  -0.535887  -0.001653  1.312926  0.0
F  F336  1  0.61761773  0.26005739  0.50136971  1  -0.836689  0.000206  -0.24184  -0.542591  0.000185  1.100262  0.0
F  F337  1  0.88238751  0.73994015  0.00136573  1  -0.836804  0.000206  -0.241853  -0.54257  0.000185  1.100266  0.0
F  F338  1  0.38237928  0.73994204  0.49863356  1  -0.836644  0.000206  -0.241909  -0.54263  0.000185  1.100214  0.0
F  F339  1  0.11761576  0.26006057  0.99863398  1  -0.836658  0.000206  -0.241876  -0.542648  0.000185  1.100375  0.0
F  F340  1  0.50190117  0.24912342  0.60528237  1  -0.835069  4.8e-05  -0.236033  -0.538527  6.2e-05  1.10947  0.0
F  F341  1  0.99809818  0.75088101  0.10528219  1  -0.835056  4.8e-05  -0.236006  -0.538441  6.2e-05  1.109443  0.0
F  F342  1  0.49809381  0.75087785  0.39471853  1  -0.83503  4.8e-05  -0.23605  -0.538489  6.2e-05  1.10945  0.0
F  F343  1  0.00190241  0.24912403  0.89471811  1  -0.835069  4.7e-05  -0.236028  -0.538562  6.2e-05  1.109596  0.0
F  F344  1  0.38105986  0.23878846  0.50589730  1  -0.840846  0.000234  -0.247464  -0.541699  0.000208  1.075393  0.0
F  F345  1  0.11894523  0.76121694  0.00589857  1  -0.840868  0.000234  -0.247488  -0.54173  0.000208  1.075407  0.0
F  F346  1  0.61893795  0.76121594  0.49410419  1  -0.840796  0.000234  -0.247458  -0.541681  0.000208  1.075459  0.0
F  F347  1  0.88105941  0.23878379  0.99410173  1  -0.840777  0.000234  -0.247456  -0.541744  0.000208  1.075497  0.0
F  F348  1  0.49709045  0.24921789  0.40194494  1  -0.831715  0.000195  -0.247449  -0.54004  0.000184  1.074844  0.0
F  F349  1  0.00292028  0.75078540  0.90194543  1  -0.831594  0.000195  -0.247465  -0.540007  0.000184  1.07487  0.0
F  F350  1  0.50291076  0.75078406  0.59805595  1  -0.831625  0.000195  -0.247459  -0.540053  0.000184  1.074866  0.0
F  F351  1  0.99708519  0.24922154  0.09805487  1  -0.831644  0.000195  -0.247516  -0.540111  0.000184  1.074909  0.0
