# generated using pymatgen
data_ZnH18C24N3O5
_symmetry_space_group_name_H-M   'P 1'
_cell_length_a   16.31458972
_cell_length_b   16.87509648
_cell_length_c   18.35339968
_cell_angle_alpha   92.14594553
_cell_angle_beta   89.99992828
_cell_angle_gamma   89.99957106
_symmetry_Int_Tables_number   1
_chemical_formula_structural   ZnH18C24N3O5
_chemical_formula_sum   'Zn8 H144 C192 N24 O40'
_cell_volume   5049.33587758
_cell_formula_units_Z   8
loop_
 _symmetry_equiv_pos_site_id
 _symmetry_equiv_pos_as_xyz
  1  'x, y, z'
loop_
 _atom_site_type_symbol
 _atom_site_label
 _atom_site_symmetry_multiplicity
 _atom_site_fract_x
 _atom_site_fract_y
 _atom_site_fract_z
 _atom_site_occupancy
 _atom_site_pbe_bader_charge
 _atom_site_pbe_bader_spin_density
 _atom_site_pbe_cm5_charge
 _atom_site_pbe_ddec_charge
 _atom_site_pbe_ddec_spin_density
 _atom_site_pbe_ddec_sum_bond_order
 _atom_site_pbe_magmom
Zn  Zn0  1  0.50319512  0.72195365  0.22201363  1  1.276126  0  0.677952  0.774475  0  2.323576  0
Zn  Zn1  1  0.00319210  0.77804802  0.27798282  1  1.276126  0  0.677942  0.774464  0  2.323781  0
Zn  Zn2  1  0.49680586  0.27804587  0.77798530  1  1.275901  0  0.677962  0.774517  0  2.323634  0
Zn  Zn3  1  0.99680337  0.22195268  0.72201561  1  1.276122  0  0.677923  0.774376  0  2.323783  0
Zn  Zn4  1  0.00035038  0.71083239  0.79058348  1  1.274183  0  0.678788  0.772905  0  2.340295  0
Zn  Zn5  1  0.50034861  0.78917290  0.70941597  1  1.274282  0  0.678806  0.772854  0  2.340285  0
Zn  Zn6  1  0.99965121  0.28916830  0.20941767  1  1.274119  0  0.678776  0.772893  0  2.340311  0
Zn  Zn7  1  0.49964747  0.21082721  0.29058298  1  1.274234  0  0.67877  0.772803  0  2.340362  0
H  H8  1  0.83171573  0.68557541  0.52427382  1  0.022667  0  0.089025  0.081016  0  0.998849  0
H  H9  1  0.33171890  0.81442449  0.97572615  1  0.022664  0  0.089031  0.081026  0  0.998755  0
H  H10  1  0.16828648  0.31442410  0.47572620  1  0.02255  0  0.088978  0.080955  0  0.998857  0
H  H11  1  0.66827963  0.18558035  0.02427516  1  0.022417  0  0.089017  0.081012  0  0.998773  0
H  H12  1  0.82543444  0.78887307  0.53965521  1  0.063085  0  0.095726  0.097484  0  1.012519  0
H  H13  1  0.32543659  0.71112688  0.96034476  1  0.062086  0  0.095718  0.097486  0  1.012566  0
H  H14  1  0.17456961  0.21112586  0.46034315  1  0.063126  0  0.095724  0.097469  0  1.012516  0
H  H15  1  0.67456623  0.28887795  0.03965981  1  0.063008  0  0.095686  0.097466  0  1.01255  0
H  H16  1  0.68828179  0.76305088  0.60945143  1  0.09742  0  0.121104  0.115205  0  0.985598  0
H  H17  1  0.18828445  0.73695244  0.89054938  1  0.097283  0  0.121177  0.115298  0  0.985484  0
H  H18  1  0.31172103  0.23694982  0.39054755  1  0.09733  0  0.12111  0.115176  0  0.985586  0
H  H19  1  0.81171653  0.26304587  0.10945550  1  0.097296  0  0.121178  0.115352  0  0.985434  0
H  H20  1  0.71814502  0.66299894  0.61058986  1  0.058124  0  0.107282  0.084315  0  0.991753  0
H  H21  1  0.21814813  0.83700416  0.88941090  1  0.058091  0  0.107299  0.084347  0  0.991717  0
H  H22  1  0.28185903  0.33700294  0.38941079  1  0.058054  0  0.107267  0.084329  0  0.991705  0
H  H23  1  0.78184979  0.16299475  0.11059019  1  0.058113  0  0.107307  0.084425  0  0.991687  0
H  H24  1  0.78765039  0.84976217  0.30841797  1  0.196444  0  0.129216  0.137178  0  1.021958  0
H  H25  1  0.28764847  0.65023564  0.19158019  1  0.196513  0  0.129188  0.137124  0  1.021945  0
H  H26  1  0.21234937  0.15023557  0.69157980  1  0.196458  0  0.129183  0.137136  0  1.02202  0
H  H27  1  0.71234699  0.34976505  0.80842314  1  0.196376  0  0.129214  0.137178  0  1.021965  0
H  H28  1  0.82697498  0.76123831  0.39348212  1  0.116394  0  0.120173  0.112671  0  0.990655  0
H  H29  1  0.32697740  0.73876216  0.10651882  1  0.116393  0  0.12015  0.11262  0  0.990694  0
H  H30  1  0.17302477  0.23875943  0.60651565  1  0.116446  0  0.120182  0.112735  0  0.990629  0
H  H31  1  0.67302113  0.26123852  0.89348506  1  0.116306  0  0.120174  0.112712  0  0.990624  0
H  H32  1  0.79028489  0.66313836  0.38925771  1  0.059687  0  0.107694  0.083442  0  0.992338  0
H  H33  1  0.29028655  0.83686179  0.11074271  1  0.059654  0  0.107699  0.083437  0  0.992398  0
H  H34  1  0.20971425  0.33685879  0.61074058  1  0.059685  0  0.107713  0.08351  0  0.992326  0
H  H35  1  0.70971382  0.16313889  0.88926225  1  0.059587  0  0.107723  0.083449  0  0.992373  0
H  H36  1  0.81482750  0.58623533  0.59296363  1  0.058109  0  0.106172  0.107908  0  1.030348  0
H  H37  1  0.31483000  0.91376469  0.90703800  1  0.058105  0  0.106175  0.107906  0  1.030361  0
H  H38  1  0.18517409  0.41376597  0.40703373  1  0.05817  0  0.106187  0.1079  0  1.030431  0
H  H39  1  0.68517099  0.08623779  0.09296050  1  0.058259  0  0.10615  0.107878  0  1.030305  0
H  H40  1  0.25401247  0.03517400  0.76381610  1  0.056495  0  0.106052  0.118006  0  1.015647  0
H  H41  1  0.75401115  0.46483164  0.73619188  1  0.05657  0  0.106111  0.11809  0  1.01568  0
H  H42  1  0.74599157  0.96482315  0.23618274  1  0.056249  0  0.106018  0.117939  0  1.015667  0
H  H43  1  0.24599045  0.53517617  0.26380953  1  0.056378  0  0.106088  0.11807  0  1.015517  0
H  H44  1  0.53284848  0.15405426  0.53173466  1  0.107021  0  0.107126  0.114159  0  0.992093  0
H  H45  1  0.03285571  0.34594830  0.96826147  1  0.107138  0  0.107183  0.114248  0  0.992239  0
H  H46  1  0.46714024  0.84594529  0.46825718  1  0.107025  0  0.107187  0.114203  0  0.992263  0
H  H47  1  0.96714589  0.65404767  0.03173351  1  0.107193  0  0.107146  0.114237  0  0.992098  0
H  H48  1  0.67694075  0.69986829  0.47657437  1  0.018625  0  0.089933  0.082204  0  1.002864  0
H  H49  1  0.17694342  0.80013387  0.02342625  1  0.018629  0  0.089956  0.082236  0  1.002882  0
H  H50  1  0.32306146  0.30013062  0.52342726  1  0.018618  0  0.08993  0.082174  0  1.002857  0
H  H51  1  0.82305818  0.19987097  0.97657614  1  0.018662  0  0.08994  0.082203  0  1.00293  0
H  H52  1  0.70170102  0.80090199  0.47173606  1  0.066365  0  0.096455  0.100494  0  1.002918  0
H  H53  1  0.20170446  0.69910058  0.02826510  1  0.066055  0  0.096424  0.100476  0  1.00293  0
H  H54  1  0.29830058  0.19909752  0.52826450  1  0.067106  0  0.096422  0.100456  0  1.002894  0
H  H55  1  0.79829530  0.30090426  0.97173621  1  0.066201  0  0.09643  0.100498  0  1.002928  0
H  H56  1  0.85899104  0.86740731  0.79806147  1  0.113012  0  0.119678  0.107249  0  1.011328  0
H  H57  1  0.35899415  0.63259358  0.70193905  1  0.113004  0  0.119714  0.107305  0  1.011254  0
H  H58  1  0.14101056  0.13259218  0.20194236  1  0.11323  0  0.119731  0.107306  0  1.011287  0
H  H59  1  0.64100254  0.36740415  0.29806199  1  0.113009  0  0.119724  0.107342  0  1.011288  0
H  H60  1  0.14160220  0.94138127  0.79520619  1  0.067826  0  0.100402  0.096376  0  1.035404  0
H  H61  1  0.64160038  0.55862829  0.70480362  1  0.067566  0  0.100374  0.096406  0  1.035205  0
H  H62  1  0.85840063  0.05861824  0.20479492  1  0.067707  0  0.100399  0.096391  0  1.035384  0
H  H63  1  0.35840061  0.44138011  0.29520000  1  0.067478  0  0.100398  0.096422  0  1.035261  0
H  H64  1  0.49348387  0.09366015  0.64938912  1  0.11126  0  0.107294  0.127068  0  1.000594  0
H  H65  1  0.99348713  0.40634496  0.85060986  1  0.111229  0  0.107301  0.127079  0  1.0006  0
H  H66  1  0.50650853  0.90634116  0.35060442  1  0.111055  0  0.107305  0.127163  0  1.000525  0
H  H67  1  0.00651324  0.59365338  0.14938685  1  0.111337  0  0.107247  0.127037  0  1.000476  0
H  H68  1  0.14827428  0.44490379  0.71077095  1  0.0719  0  0.102182  0.099216  0  1.027339  0
H  H69  1  0.64828218  0.05509020  0.78922964  1  0.071703  0  0.102189  0.099232  0  1.027198  0
H  H70  1  0.85172303  0.55509156  0.28923164  1  0.071908  0  0.102181  0.099171  0  1.027312  0
H  H71  1  0.35172248  0.94491644  0.21076737  1  0.071626  0  0.102169  0.099187  0  1.027231  0
H  H72  1  0.26714236  0.53530153  0.73575285  1  0.041695  0  0.106292  0.117691  0  1.017529  0
H  H73  1  0.76715142  0.96469293  0.76424371  1  0.041686  0  0.106261  0.117654  0  1.017459  0
H  H74  1  0.73285494  0.46469383  0.26424701  1  0.041641  0  0.106265  0.117643  0  1.017474  0
H  H75  1  0.23285263  0.03531193  0.23575432  1  0.041561  0  0.106265  0.117671  0  1.017436  0
H  H76  1  0.30564901  0.49316751  0.95621422  1  0.075631  0  0.101712  0.113365  0  1.053247  0
H  H77  1  0.80565578  0.00683304  0.54378480  1  0.076073  0  0.101659  0.113346  0  1.053063  0
H  H78  1  0.69434829  0.50682845  0.04378403  1  0.075796  0  0.101622  0.113219  0  1.053152  0
H  H79  1  0.19434888  0.99316767  0.45621145  1  0.075703  0  0.101687  0.113356  0  1.053135  0
H  H80  1  0.28522641  0.98262344  0.54368687  1  0.082479  0  0.101609  0.114797  0  1.03805  0
H  H81  1  0.78523131  0.51737797  0.95631919  1  0.082663  0  0.1016  0.114674  0  1.03796  0
H  H82  1  0.71476292  0.01737430  0.45631253  1  0.08231  0  0.101585  0.114695  0  1.038009  0
H  H83  1  0.21477519  0.48262569  0.04368207  1  0.08255  0  0.101634  0.114761  0  1.038095  0
H  H84  1  0.00744889  0.42907056  0.66057643  1  0.162551  0  0.110748  0.129769  0  1.019152  0
H  H85  1  0.50744740  0.07092977  0.83943055  1  0.162578  0  0.110746  0.129788  0  1.019124  0
H  H86  1  0.99255332  0.57093132  0.33942313  1  0.16199  0  0.110761  0.129833  0  1.019095  0
H  H87  1  0.49255113  0.92906856  0.16056833  1  0.162583  0  0.110751  0.129787  0  1.019045  0
H  H88  1  0.68976653  0.59382534  0.41041903  1  0.06039  0  0.107313  0.110692  0  1.027172  0
H  H89  1  0.18976645  0.90617672  0.08958103  1  0.060389  0  0.107278  0.11065  0  1.027257  0
H  H90  1  0.31022771  0.40617239  0.58958147  1  0.060111  0  0.10736  0.110768  0  1.027082  0
H  H91  1  0.81023453  0.09382574  0.91042345  1  0.060326  0  0.107324  0.11068  0  1.027167  0
H  H92  1  0.22591154  0.77535009  0.62953442  1  0.096573  0  0.106277  0.110578  0  0.992949  0
H  H93  1  0.72591556  0.72465649  0.87047355  1  0.096566  0  0.106319  0.110777  0  0.99287  0
H  H94  1  0.77408822  0.22464466  0.37046978  1  0.096503  0  0.106296  0.110643  0  0.992929  0
H  H95  1  0.27408726  0.27534835  0.12953048  1  0.0967  0  0.106358  0.110735  0  0.993005  0
H  H96  1  0.23439523  0.28959137  0.87371024  1  0.06901  0  0.107697  0.113428  0  0.988426  0
H  H97  1  0.73439847  0.21040555  0.62629090  1  0.069057  0  0.107709  0.113412  0  0.988416  0
H  H98  1  0.76560453  0.71040458  0.12629128  1  0.069156  0  0.107703  0.1134  0  0.988419  0
H  H99  1  0.26560864  0.78959754  0.37370544  1  0.069218  0  0.107729  0.113448  0  0.988467  0
H  H100  1  0.05256753  0.53799398  0.74971357  1  0.135856  0  0.121497  0.095447  0  1.005579  0
H  H101  1  0.55256866  0.96201092  0.75028908  1  0.135879  0  0.121461  0.095369  0  1.005536  0
H  H102  1  0.94742977  0.46200611  0.25028865  1  0.135865  0  0.12144  0.095361  0  1.005623  0
H  H103  1  0.44743171  0.03798859  0.24971148  1  0.135873  0  0.121484  0.095379  0  1.005534  0
H  H104  1  0.72917055  0.85280043  0.69682837  1  0.170787  0  0.129087  0.139491  0  1.024747  0
H  H105  1  0.22917648  0.64720200  0.80317290  1  0.170454  0  0.129128  0.139486  0  1.024778  0
H  H106  1  0.27083227  0.14720264  0.30317178  1  0.170312  0  0.129083  0.139479  0  1.02478  0
H  H107  1  0.77081960  0.35279988  0.19682830  1  0.170988  0  0.12914  0.139528  0  1.024786  0
H  H108  1  0.34398283  0.86543788  0.60207815  1  0.13448  0  0.11115  0.139369  0  1.002879  0
H  H109  1  0.84398751  0.63456784  0.89792747  1  0.134418  0  0.11123  0.139484  0  1.002736  0
H  H110  1  0.65601571  0.13455689  0.39792060  1  0.134485  0  0.111165  0.139397  0  1.002829  0
H  H111  1  0.15601654  0.36543819  0.10207388  1  0.134464  0  0.111183  0.139391  0  1.002765  0
H  H112  1  0.60982567  0.47051079  0.42426700  1  0.077738  0  0.114248  0.108951  0  0.96974  0
H  H113  1  0.10982546  0.02949055  0.07573049  1  0.077707  0  0.114256  0.108966  0  0.969617  0
H  H114  1  0.39016857  0.52948519  0.57572689  1  0.077635  0  0.11429  0.109058  0  0.969528  0
H  H115  1  0.89017859  0.97051250  0.92427565  1  0.077712  0  0.114245  0.10893  0  0.969735  0
H  H116  1  0.35668358  0.37604980  0.89576836  1  0.115574  0  0.108964  0.135873  0  1.017643  0
H  H117  1  0.85668814  0.12394978  0.60423220  1  0.115543  0  0.109  0.135937  0  1.017596  0
H  H118  1  0.64331495  0.62394971  0.10423438  1  0.115569  0  0.108975  0.135889  0  1.017716  0
H  H119  1  0.14331591  0.87604974  0.39576346  1  0.115627  0  0.108973  0.135896  0  1.017684  0
H  H120  1  0.50428619  0.60786157  0.84713247  1  0.117007  0  0.106466  0.126091  0  1.003727  0
H  H121  1  0.00429287  0.89213599  0.65286342  1  0.116975  0  0.106486  0.126048  0  1.003741  0
H  H122  1  0.49571235  0.39213674  0.15287132  1  0.116842  0  0.106448  0.12602  0  1.003768  0
H  H123  1  0.99571179  0.10787123  0.34713580  1  0.117063  0  0.10649  0.126057  0  1.00379  0
H  H124  1  0.32517168  0.04301181  0.42659077  1  0.081736  0  0.099979  0.100342  0  1.025999  0
H  H125  1  0.82517738  0.45698260  0.07341112  1  0.081663  0  0.099944  0.100265  0  1.026026  0
H  H126  1  0.67481582  0.95698534  0.57340589  1  0.081621  0  0.099947  0.100274  0  1.02592  0
H  H127  1  0.17482790  0.54301633  0.92658724  1  0.081571  0  0.099996  0.100361  0  1.025946  0
H  H128  1  0.88678140  0.45710996  0.57870109  1  0.071595  0  0.114723  0.110829  0  0.966704  0
H  H129  1  0.38678000  0.04288938  0.92130597  1  0.071451  0  0.114761  0.110912  0  0.966661  0
H  H130  1  0.11322449  0.54289312  0.42129688  1  0.071306  0  0.114779  0.110874  0  0.966633  0
H  H131  1  0.61321914  0.95711252  0.07869141  1  0.071467  0  0.114749  0.110883  0  0.96659  0
H  H132  1  0.65334238  0.86725738  0.21362910  1  0.119752  0  0.122071  0.109652  0  1.01002  0
H  H133  1  0.15333557  0.63273904  0.28636589  1  0.119828  0  0.122079  0.109629  0  1.01004  0
H  H134  1  0.34665860  0.13273858  0.78636861  1  0.119682  0  0.122068  0.109601  0  1.010142  0
H  H135  1  0.84665745  0.36726165  0.71363635  1  0.119821  0  0.122088  0.109626  0  1.010089  0
H  H136  1  0.34775768  0.55921662  0.07350169  1  0.092218  0  0.101084  0.101424  0  1.016694  0
H  H137  1  0.84776425  0.94078311  0.42649593  1  0.09234  0  0.101092  0.101407  0  1.016658  0
H  H138  1  0.65223656  0.44077399  0.92649854  1  0.092033  0  0.101039  0.101342  0  1.016813  0
H  H139  1  0.15224471  0.05921641  0.57350136  1  0.092251  0  0.10105  0.101385  0  1.016686  0
H  H140  1  0.44099314  0.55397634  0.26245916  1  0.130239  0  0.122733  0.096487  0  0.991689  0
H  H141  1  0.94099134  0.94602746  0.23753959  1  0.130853  0  0.122704  0.09643  0  0.991665  0
H  H142  1  0.55900478  0.44602616  0.73753606  1  0.13036  0  0.122752  0.096579  0  0.991586  0
H  H143  1  0.05900719  0.05397442  0.76246106  1  0.130274  0  0.122728  0.096482  0  0.991615  0
H  H144  1  0.48372641  0.44630688  0.34727453  1  0.154312  0  0.109895  0.123274  0  1.015009  0
H  H145  1  0.98372532  0.05369587  0.15272260  1  0.154245  0  0.109915  0.123285  0  1.015052  0
H  H146  1  0.51627028  0.55369088  0.65271616  1  0.154479  0  0.109915  0.12317  0  1.015121  0
H  H147  1  0.01627751  0.94630778  0.84728139  1  0.154286  0  0.109951  0.1233  0  1.015074  0
H  H148  1  0.54546800  0.67524449  0.96526560  1  0.097219  0  0.107241  0.114105  0  0.992375  0
H  H149  1  0.04547047  0.82474803  0.53473006  1  0.097099  0  0.107221  0.114037  0  0.992535  0
H  H150  1  0.45453176  0.32474907  0.03474019  1  0.094689  0  0.107239  0.114101  0  0.992468  0
H  H151  1  0.95453665  0.17525563  0.46527120  1  0.095107  0  0.107238  0.114122  0  0.992421  0
C  C152  1  0.64696579  0.71440073  0.31259030  1  0.930997  0  0.216625  0.181212  0  3.963889  0
C  C153  1  0.14696590  0.78560225  0.18740930  1  0.931001  0  0.216632  0.181199  0  3.963789  0
C  C154  1  0.35303274  0.28559819  0.68740970  1  0.930839  0  0.216607  0.181067  0  3.963837  0
C  C155  1  0.85303141  0.21439844  0.81259239  1  0.930799  0  0.216616  0.181178  0  3.963777  0
C  C156  1  0.45114140  0.13900649  0.40179861  1  1.518478  0  0.190097  0.554386  0  4.219337  0
C  C157  1  0.95114964  0.36098879  0.09819990  1  1.517707  0  0.19026  0.554636  0  4.219233  0
C  C158  1  0.54884794  0.86098890  0.59819526  1  1.517643  0  0.190248  0.554753  0  4.219227  0
C  C159  1  0.04885502  0.63901013  0.90179846  1  1.517366  0  0.190145  0.5545  0  4.219482  0
C  C160  1  0.78816556  0.73464790  0.53453094  1  -0.031388  0  -0.16344  -0.165191  0  3.920477  0
C  C161  1  0.28816851  0.76535172  0.96547070  1  -0.030313  0  -0.163434  -0.165138  0  3.920409  0
C  C162  1  0.21183788  0.26535161  0.46546962  1  -0.031217  0  -0.163348  -0.165053  0  3.920415  0
C  C163  1  0.71183309  0.23465133  0.03453327  1  -0.03108  0  -0.163421  -0.165128  0  3.920426  0
C  C164  1  0.74169304  0.72360200  0.60580580  1  0.301003  0  -0.05007  -0.062882  0  3.862362  0
C  C165  1  0.24169661  0.77640033  0.89419490  1  0.301168  0  -0.050175  -0.063015  0  3.862426  0
C  C166  1  0.25830917  0.27639929  0.39419319  1  0.301162  0  -0.050066  -0.062855  0  3.86239  0
C  C167  1  0.75830376  0.22359976  0.10580841  1  0.301262  0  -0.050145  -0.063149  0  3.86239  0
C  C168  1  0.86011097  0.70838250  0.69619145  1  0.973337  0  0.216256  0.181859  0  3.960974  0
C  C169  1  0.36011271  0.79162076  0.80380643  1  0.973227  0  0.216243  0.181846  0  3.961022  0
C  C170  1  0.13989002  0.29161879  0.30380917  1  0.973126  0  0.216127  0.181761  0  3.960947  0
C  C171  1  0.63988705  0.20837875  0.19619413  1  0.973449  0  0.216364  0.182077  0  3.961016  0
C  C172  1  0.73240795  0.81502970  0.29878416  1  0.28158  0  0.020535  -0.078948  0  3.865483  0
C  C173  1  0.23240575  0.68497029  0.20121360  1  0.281381  0  0.020545  -0.078875  0  3.865398  0
C  C174  1  0.26759119  0.18496864  0.70121363  1  0.281372  0  0.020554  -0.078937  0  3.865553  0
C  C175  1  0.76759033  0.31502981  0.79878862  1  0.281316  0  0.020422  -0.079069  0  3.865637  0
C  C176  1  0.77124770  0.72532692  0.39751880  1  0.259959  0  -0.05001  -0.06196  0  3.867643  0
C  C177  1  0.27124985  0.77467456  0.10248115  1  0.259887  0  -0.050057  -0.062018  0  3.86772  0
C  C178  1  0.22875206  0.27467201  0.60247901  1  0.259874  0  -0.050091  -0.06226  0  3.867693  0
C  C179  1  0.72874991  0.22532672  0.89752275  1  0.260076  0  -0.050098  -0.062109  0  3.867663  0
C  C180  1  0.89663380  0.63107229  0.67807345  1  0.542161  0  0.128211  0.167413  0  3.996164  0
C  C181  1  0.39663370  0.86892832  0.82192702  1  0.541697  0  0.128202  0.167439  0  3.996256  0
C  C182  1  0.10336718  0.36892662  0.32192709  1  0.54167  0  0.128185  0.167343  0  3.99639  0
C  C183  1  0.60336667  0.13107059  0.17807461  1  0.542034  0  0.128205  0.167364  0  3.996228  0
C  C184  1  0.11088796  0.79663482  0.73369768  1  1.535217  0  0.183585  0.544287  0  4.248862  0
C  C185  1  0.61089045  0.70337971  0.76631235  1  1.535405  0  0.183626  0.5444  0  4.248644  0
C  C186  1  0.88911180  0.20336705  0.26630733  1  1.535566  0  0.18352  0.544197  0  4.248959  0
C  C187  1  0.38911053  0.29662927  0.23369347  1  1.535614  0  0.183493  0.544156  0  4.249118  0
C  C188  1  0.17631324  0.85352067  0.71330669  1  -0.024874  0  -0.026402  -0.048599  0  4.000262  0
C  C189  1  0.67631492  0.64648805  0.78670142  1  -0.024909  0  -0.026468  -0.048967  0  4.000703  0
C  C190  1  0.82368652  0.14647705  0.28669599  1  -0.024899  0  -0.026382  -0.048483  0  4.000157  0
C  C191  1  0.32368729  0.35351917  0.21330161  1  -0.025355  0  -0.026382  -0.048559  0  4.000525  0
C  C192  1  0.18301645  0.36285165  0.79208557  1  -0.001522  0  -0.026803  -0.054129  0  4.004276  0
C  C193  1  0.68302015  0.13714445  0.70791451  1  -0.001247  0  -0.026825  -0.053973  0  4.004061  0
C  C194  1  0.81698208  0.63714489  0.20791706  1  -0.001116  0  -0.026779  -0.053988  0  4.004176  0
C  C195  1  0.31698329  0.86285923  0.29208076  1  -0.000947  0  -0.02665  -0.053852  0  4.004264  0
C  C196  1  0.40328416  0.54606424  0.89501336  1  0.405994  0  0.090279  0.272446  0  4.03651  0
C  C197  1  0.90329290  0.95393396  0.60498428  1  0.405758  0  0.090241  0.272391  0  4.036855  0
C  C198  1  0.59671437  0.45393051  0.10498920  1  0.406057  0  0.090142  0.272319  0  4.03673  0
C  C199  1  0.09671115  0.04606912  0.39501260  1  0.405924  0  0.090182  0.272367  0  4.036974  0
C  C200  1  0.47131662  0.66014360  0.09825073  1  1.507334  0  0.188233  0.550881  0  4.221491  0
C  C201  1  0.97131910  0.83985286  0.40174663  1  1.507178  0  0.188289  0.551048  0  4.221295  0
C  C202  1  0.52867701  0.33984700  0.90175331  1  1.507292  0  0.188244  0.551032  0  4.221175  0
C  C203  1  0.02868802  0.16014486  0.59825605  1  1.508136  0  0.188255  0.550989  0  4.221409  0
C  C204  1  0.30339544  0.95626267  0.67991626  1  0.371759  0  0.083486  0.258547  0  4.035021  0
C  C205  1  0.80339664  0.54374572  0.82009169  1  0.371979  0  0.083488  0.258478  0  4.035141  0
C  C206  1  0.69660371  0.04373329  0.32008199  1  0.372125  0  0.083338  0.258385  0  4.035327  0
C  C207  1  0.19660680  0.45626149  0.17991134  1  0.371764  0  0.08347  0.258438  0  4.034923  0
C  C208  1  0.38768067  0.03468570  0.60285716  1  0.366514  0  0.09001  0.27173  0  4.038977  0
C  C209  1  0.88768586  0.46531661  0.89714456  1  0.366741  0  0.089991  0.271641  0  4.038999  0
C  C210  1  0.61231173  0.96531264  0.39713900  1  0.367366  0  0.089977  0.271586  0  4.039158  0
C  C211  1  0.11231818  0.53468528  0.10285227  1  0.366236  0  0.090041  0.271629  0  4.039281  0
C  C212  1  0.86839492  0.57460013  0.62606134  1  0.040553  0  -0.085307  -0.166593  0  3.97207  0
C  C213  1  0.36839369  0.92539891  0.87394019  1  0.040965  0  -0.085381  -0.166663  0  3.97206  0
C  C214  1  0.13160791  0.42539880  0.37393757  1  0.040857  0  -0.085321  -0.166563  0  3.9721  0
C  C215  1  0.63160423  0.07460179  0.12605933  1  0.040449  0  -0.085316  -0.166539  0  3.971854  0
C  C216  1  0.24711563  0.97848260  0.73427828  1  0.013053  0  -0.105356  -0.207405  0  4.023117  0
C  C217  1  0.74711524  0.52152501  0.76572970  1  0.013282  0  -0.105372  -0.207403  0  4.023105  0
C  C218  1  0.75288658  0.02151454  0.26572111  1  0.013205  0  -0.105315  -0.207269  0  4.023037  0
C  C219  1  0.25288820  0.47848162  0.23427167  1  0.013259  0  -0.105379  -0.207407  0  4.022933  0
C  C220  1  0.47908938  0.11598374  0.53454835  1  0.025914  0  -0.077557  -0.059587  0  3.969749  0
C  C221  1  0.97909511  0.38401613  0.96545099  1  0.025396  0  -0.077628  -0.059693  0  3.969965  0
C  C222  1  0.52090118  0.88401698  0.46544572  1  0.025868  0  -0.077652  -0.059748  0  3.97023  0
C  C223  1  0.02090587  0.61598102  0.03454621  1  0.025703  0  -0.077572  -0.059661  0  3.969758  0
C  C224  1  0.72866301  0.74111219  0.47071621  1  -0.013829  0  -0.163463  -0.168037  0  3.929813  0
C  C225  1  0.22866537  0.75888959  0.02928434  1  -0.013441  0  -0.163401  -0.168031  0  3.929926  0
C  C226  1  0.27133920  0.25888732  0.52928435  1  -0.014622  0  -0.163425  -0.167919  0  3.929821  0
C  C227  1  0.77133438  0.24111406  0.97071910  1  -0.013767  0  -0.163399  -0.167972  0  3.929932  0
C  C228  1  0.31664429  0.46273459  0.81916724  1  0.352709  0  0.082322  0.253727  0  4.029825  0
C  C229  1  0.81665064  0.03726233  0.68082945  1  0.352711  0  0.082363  0.253772  0  4.029563  0
C  C230  1  0.68335547  0.53726256  0.18082997  1  0.352685  0  0.082253  0.253706  0  4.02985  0
C  C231  1  0.18335280  0.96273896  0.31916899  1  0.352641  0  0.082238  0.253694  0  4.029843  0
C  C232  1  0.60647777  0.64033954  0.33025206  1  0.555711  0  0.129102  0.166823  0  4.002253  0
C  C233  1  0.10647855  0.85966374  0.16974759  1  0.55567  0  0.129054  0.166857  0  4.002311  0
C  C234  1  0.39351832  0.35965938  0.66974739  1  0.555661  0  0.129135  0.167019  0  4.002229  0
C  C235  1  0.89351998  0.14033874  0.83025417  1  0.555685  0  0.129075  0.166818  0  4.002256  0
C  C236  1  0.84444844  0.82047848  0.75826011  1  0.421499  0  0.014165  -0.003114  0  3.999468  0
C  C237  1  0.34445113  0.67952430  0.74173832  1  0.421426  0  0.014074  -0.003226  0  3.999319  0
C  C238  1  0.15555193  0.17952221  0.24174104  1  0.421385  0  0.014207  -0.003086  0  3.999404  0
C  C239  1  0.65554556  0.32047580  0.25826226  1  0.420994  0  0.014053  -0.003273  0  3.999392  0
C  C240  1  0.44920900  0.62103663  0.02721373  1  0.005691  0  -0.033747  -0.074548  0  4.025417  0
C  C241  1  0.94921230  0.87896058  0.47278422  1  0.005805  0  -0.033706  -0.074605  0  4.025592  0
C  C242  1  0.55078708  0.37895279  0.97278972  1  0.005335  0  -0.033807  -0.074545  0  4.025488  0
C  C243  1  0.05079542  0.12104190  0.52721482  1  0.005643  0  -0.033733  -0.074549  0  4.025284  0
C  C244  1  0.18458590  0.92649009  0.75145336  1  -0.040728  0  -0.091148  -0.090724  0  4.024427  0
C  C245  1  0.68458574  0.57351796  0.74855797  1  -0.040243  0  -0.091128  -0.090659  0  4.024695  0
C  C246  1  0.81541631  0.07350823  0.24854824  1  -0.040643  0  -0.091149  -0.090806  0  4.02446  0
C  C247  1  0.31541647  0.42648806  0.25144610  1  -0.040219  0  -0.09116  -0.090782  0  4.024633  0
C  C248  1  0.45765467  0.08260589  0.59993113  1  -0.08966  0  -0.100748  -0.194762  0  3.968306  0
C  C249  1  0.95766023  0.41739710  0.90006999  1  -0.089174  0  -0.100744  -0.194814  0  3.968332  0
C  C250  1  0.54233651  0.91739364  0.40006398  1  -0.08975  0  -0.100844  -0.194924  0  3.968586  0
C  C251  1  0.04234260  0.58260183  0.09992674  1  -0.089553  0  -0.100691  -0.194704  0  3.968227  0
C  C252  1  0.19298704  0.43162897  0.75261650  1  -0.033964  0  -0.088566  -0.085574  0  4.013232  0
C  C253  1  0.69299244  0.06836648  0.74738083  1  -0.0337  0  -0.088585  -0.085701  0  4.013  0
C  C254  1  0.80701088  0.56836580  0.24738225  1  -0.034075  0  -0.088558  -0.085613  0  4.013248  0
C  C255  1  0.30701038  0.93163601  0.25261658  1  -0.033809  0  -0.088664  -0.085794  0  4.013257  0
C  C256  1  0.25907554  0.48196348  0.76637040  1  -0.017068  0  -0.103186  -0.201857  0  4.016763  0
C  C257  1  0.75908380  0.01803326  0.73362908  1  -0.01712  0  -0.103252  -0.201917  0  4.016516  0
C  C258  1  0.74092054  0.51803484  0.23363121  1  -0.016968  0  -0.103211  -0.201842  0  4.016716  0
C  C259  1  0.24091903  0.98196863  0.26636939  1  -0.017013  0  -0.103143  -0.201787  0  4.0165  0
C  C260  1  0.35821714  0.53260424  0.95820022  1  -0.099243  0  -0.11263  -0.230834  0  4.024758  0
C  C261  1  0.85822525  0.96739488  0.54179968  1  -0.099456  0  -0.112562  -0.230838  0  4.024764  0
C  C262  1  0.64178016  0.46738875  0.04180009  1  -0.100008  0  -0.112494  -0.230619  0  4.02457  0
C  C263  1  0.14178125  0.03260821  0.45819665  1  -0.09934  0  -0.112561  -0.230808  0  4.024698  0
C  C264  1  0.33938903  0.01995981  0.54080815  1  -0.059481  0  -0.112282  -0.231188  0  4.023505  0
C  C265  1  0.83939402  0.48004167  0.95919414  1  -0.060072  0  -0.112301  -0.230921  0  4.023197  0
C  C266  1  0.66060215  0.98003853  0.45918855  1  -0.060264  0  -0.112311  -0.230995  0  4.023375  0
C  C267  1  0.16061064  0.51996081  0.04080490  1  -0.059388  0  -0.112338  -0.231112  0  4.023529  0
C  C268  1  0.97590453  0.48613925  0.66272997  1  -0.057173  0  -0.082888  -0.137361  0  3.9493  0
C  C269  1  0.47590286  0.01386419  0.83727496  1  -0.056953  0  -0.082916  -0.137475  0  3.949135  0
C  C270  1  0.02409707  0.51386263  0.33727123  1  -0.056586  0  -0.082887  -0.137505  0  3.949109  0
C  C271  1  0.52409629  0.98613770  0.16272296  1  -0.057433  0  -0.082922  -0.137487  0  3.949135  0
C  C272  1  0.63366098  0.58442217  0.37943437  1  -0.072173  0  -0.084276  -0.166752  0  3.970644  0
C  C273  1  0.13366140  0.91558032  0.12056468  1  -0.072127  0  -0.084145  -0.166634  0  3.970703  0
C  C274  1  0.36633449  0.41557617  0.62056397  1  -0.071983  0  -0.084379  -0.166925  0  3.970555  0
C  C275  1  0.86633836  0.08442215  0.87943871  1  -0.071981  0  -0.084304  -0.166758  0  3.970626  0
C  C276  1  0.43116918  0.10203635  0.47174285  1  -0.022949  0  -0.033577  -0.073619  0  4.025823  0
C  C277  1  0.93117540  0.39796203  0.02825744  1  -0.02286  0  -0.03355  -0.073559  0  4.026121  0
C  C278  1  0.56881832  0.89796200  0.52825059  1  -0.022872  0  -0.033443  -0.073294  0  4.02581  0
C  C279  1  0.06882804  0.60203571  0.97173979  1  -0.022963  0  -0.033559  -0.073558  0  4.026055  0
C  C280  1  0.23243245  0.83287728  0.65792986  1  -0.06133  0  -0.079876  -0.065763  0  3.964795  0
C  C281  1  0.73243512  0.66713103  0.84207816  1  -0.061544  0  -0.07989  -0.065938  0  3.964858  0
C  C282  1  0.76756424  0.16711985  0.34207279  1  -0.061079  0  -0.079991  -0.066029  0  3.964585  0
C  C283  1  0.26756770  0.33287440  0.15792589  1  -0.06152  0  -0.080014  -0.066116  0  3.96501  0
C  C284  1  0.24163702  0.34422706  0.84457053  1  -0.072426  0  -0.078614  -0.061433  0  3.959272  0
C  C285  1  0.74164004  0.15576862  0.65542947  1  -0.072487  0  -0.0785  -0.061223  0  3.959063  0
C  C286  1  0.75836519  0.65576889  0.15543154  1  -0.072785  0  -0.078597  -0.061333  0  3.959125  0
C  C287  1  0.25836708  0.84423328  0.34456518  1  -0.073043  0  -0.07871  -0.06147  0  3.959291  0
C  C288  1  0.00095115  0.54553233  0.71281657  1  0.477371  0  0.063542  0.122877  0  3.914496  0
C  C289  1  0.50095045  0.95447057  0.78718552  1  0.477527  0  0.063525  0.122997  0  3.914224  0
C  C290  1  0.99904922  0.45446777  0.28718456  1  0.477147  0  0.063547  0.123016  0  3.91435  0
C  C291  1  0.49905054  0.04552834  0.21281502  1  0.477785  0  0.063507  0.123055  0  3.914167  0
C  C292  1  0.78121920  0.81516129  0.70845442  1  0.347287  0  0.020185  -0.079849  0  3.868144  0
C  C293  1  0.28122301  0.68484017  0.79154567  1  0.347815  0  0.020184  -0.079752  0  3.868232  0
C  C294  1  0.21878363  0.18484000  0.29154621  1  0.34797  0  0.020193  -0.079787  0  3.868165  0
C  C295  1  0.71877369  0.31515934  0.20845544  1  0.347438  0  0.02018  -0.079857  0  3.86836  0
C  C296  1  0.29705602  0.88321331  0.64173171  1  0.012194  0  -0.096489  -0.196763  0  3.966949  0
C  C297  1  0.79705967  0.61679393  0.85827620  1  0.011829  0  -0.096544  -0.196786  0  3.966774  0
C  C298  1  0.70294312  0.11678027  0.35826863  1  0.011789  0  -0.096423  -0.196667  0  3.966859  0
C  C299  1  0.20294499  0.38321328  0.14172574  1  0.012176  0  -0.096455  -0.196589  0  3.966508  0
C  C300  1  0.58885963  0.51478315  0.38661591  1  0.007272  0  -0.067844  -0.030458  0  3.996514  0
C  C301  1  0.08885768  0.98521906  0.11338263  1  0.00706  0  -0.067885  -0.03052  0  3.996393  0
C  C302  1  0.41113645  0.48521459  0.61338022  1  0.007226  0  -0.067821  -0.030563  0  3.996292  0
C  C303  1  0.91114269  0.01478399  0.88662078  1  0.00692  0  -0.067814  -0.030442  0  3.996446  0
C  C304  1  0.30916411  0.39317055  0.85773340  1  0.090623  0  -0.097687  -0.196456  0  3.970673  0
C  C305  1  0.80916997  0.10682760  0.64226662  1  0.090524  0  -0.097765  -0.196685  0  3.970735  0
C  C306  1  0.69083381  0.60682896  0.14226771  1  0.090624  0  -0.097667  -0.196522  0  3.970751  0
C  C307  1  0.19083408  0.89317074  0.35772900  1  0.090686  0  -0.097595  -0.196465  0  3.970685  0
C  C308  1  0.47093384  0.59737872  0.89728837  1  -0.028983  0  -0.100375  -0.194155  0  3.966728  0
C  C309  1  0.97094114  0.90261781  0.60270750  1  -0.028927  0  -0.100407  -0.194106  0  3.966697  0
C  C310  1  0.52906470  0.40261544  0.10271418  1  -0.029021  0  -0.100361  -0.194052  0  3.966756  0
C  C311  1  0.02906597  0.09738823  0.39729112  1  -0.028922  0  -0.10041  -0.194159  0  3.96683  0
C  C312  1  0.36171129  0.05358094  0.47572109  1  0.030946  0  -0.08485  -0.067215  0  4.003002  0
C  C313  1  0.86171530  0.44641677  0.02428034  1  0.031114  0  -0.084842  -0.067272  0  4.003241  0
C  C314  1  0.63827621  0.94641740  0.52427562  1  0.031495  0  -0.084883  -0.06737  0  4.002887  0
C  C315  1  0.13828814  0.55358275  0.97571804  1  0.031016  0  -0.084929  -0.067386  0  4.00313  0
C  C316  1  0.90869226  0.50184774  0.61855051  1  -0.073861  0  -0.067526  -0.03155  0  3.99266  0
C  C317  1  0.40868862  0.99815276  0.88145539  1  -0.07395  0  -0.067484  -0.031546  0  3.992425  0
C  C318  1  0.09131485  0.49815474  0.38144962  1  -0.073427  0  -0.067536  -0.03151  0  3.992312  0
C  C319  1  0.59130991  0.00184852  0.11854524  1  -0.073679  0  -0.067519  -0.031602  0  3.992434  0
C  C320  1  0.66682126  0.82183593  0.25201734  1  0.480982  0  0.017378  0.003347  0  3.990603  0
C  C321  1  0.16681783  0.67816336  0.24797774  1  0.481163  0  0.017369  0.003347  0  3.990837  0
C  C322  1  0.33318033  0.17816062  0.74798038  1  0.481275  0  0.017362  0.003353  0  3.990697  0
C  C323  1  0.83317825  0.32183734  0.75202396  1  0.481283  0  0.01738  0.003373  0  3.99071  0
C  C324  1  0.38174198  0.56971251  0.02367429  1  0.032994  0  -0.083922  -0.061842  0  3.998374  0
C  C325  1  0.88174733  0.93028697  0.47632546  1  0.0329  0  -0.083869  -0.061691  0  3.998358  0
C  C326  1  0.61825349  0.43027810  0.97632703  1  0.03429  0  -0.083791  -0.061688  0  3.998407  0
C  C327  1  0.11825978  0.06971611  0.52367305  1  0.033196  0  -0.083867  -0.061742  0  3.998164  0
C  C328  1  0.49478298  0.56014488  0.29751415  1  0.511761  0  0.064836  0.126939  0  3.916052  0
C  C329  1  0.99478250  0.93985852  0.20248344  1  0.511141  0  0.064837  0.127036  0  3.916126  0
C  C330  1  0.50521433  0.43985583  0.70248046  1  0.510698  0  0.064712  0.126733  0  3.916181  0
C  C331  1  0.00521664  0.06014276  0.79751828  1  0.511292  0  0.064895  0.12702  0  3.916003  0
C  C332  1  0.51837127  0.50146977  0.34488001  1  -0.063753  0  -0.083215  -0.139551  0  3.956222  0
C  C333  1  0.01836977  0.99853237  0.15511807  1  -0.063708  0  -0.083257  -0.139573  0  3.956358  0
C  C334  1  0.48162543  0.49852917  0.65511454  1  -0.063309  0  -0.083233  -0.139358  0  3.956409  0
C  C335  1  0.98163122  0.00147010  0.84488478  1  -0.063732  0  -0.083296  -0.139567  0  3.956287  0
C  C336  1  0.49348463  0.63461800  0.96312328  1  -0.069309  0  -0.078633  -0.065871  0  3.972755  0
C  C337  1  0.99348986  0.86537658  0.53687412  1  -0.06946  0  -0.078606  -0.065801  0  3.972783  0
C  C338  1  0.50651390  0.36537378  0.03688135  1  -0.067076  0  -0.078587  -0.065893  0  3.972817  0
C  C339  1  0.00651726  0.13462708  0.46312659  1  -0.067363  0  -0.078557  -0.065822  0  3.972746  0
C  C340  1  0.11318654  0.30781606  0.77597431  1  1.544228  0  0.18476  0.547278  0  4.246326  0
C  C341  1  0.61319040  0.19217937  0.72402637  1  1.544141  0  0.184625  0.54705  0  4.246395  0
C  C342  1  0.88681261  0.69217989  0.22402666  1  1.544158  0  0.184698  0.547145  0  4.246278  0
C  C343  1  0.38681487  0.80782254  0.27596884  1  1.544729  0  0.184717  0.547184  0  4.246648  0
N  N344  1  0.79187192  0.74463201  0.66958302  1  -1.218794  0  -0.229236  0.022376  0  3.721509  0
N  N345  1  0.29187146  0.75536877  0.83041920  1  -1.218824  0  -0.229258  0.02221  0  3.721619  0
N  N346  1  0.20813151  0.25536928  0.33041815  1  -1.218995  0  -0.229169  0.022297  0  3.721669  0
N  N347  1  0.70812585  0.24463132  0.16958411  1  -1.219043  0  -0.229328  0.022186  0  3.721671  0
N  N348  1  0.71917341  0.74740852  0.33672575  1  -1.210319  0  -0.227564  0.023275  0  3.716916  0
N  N349  1  0.21917503  0.75259334  0.16327264  1  -1.210328  0  -0.227505  0.02338  0  3.716756  0
N  N350  1  0.28082451  0.25259040  0.66327261  1  -1.210155  0  -0.227527  0.023462  0  3.716833  0
N  N351  1  0.78082350  0.24740854  0.83672910  1  -1.210213  0  -0.227412  0.023419  0  3.716996  0
N  N352  1  0.96283103  0.61541846  0.71994366  1  -1.237021  0  -0.310885  -0.243535  0  3.507615  0
N  N353  1  0.46282963  0.88458346  0.78005624  1  -1.237183  0  -0.310841  -0.243535  0  3.507591  0
N  N354  1  0.03716996  0.38457986  0.28005850  1  -1.236744  0  -0.310889  -0.243581  0  3.507619  0
N  N355  1  0.53716829  0.11541546  0.21994376  1  -1.237222  0  -0.310859  -0.243591  0  3.50753  0
N  N356  1  0.53725698  0.62708516  0.29071852  1  -1.221741  0  -0.308533  -0.246586  0  3.497112  0
N  N357  1  0.03725638  0.87291862  0.20927906  1  -1.221573  0  -0.308472  -0.246614  0  3.497181  0
N  N358  1  0.46274033  0.37291495  0.70927880  1  -1.221042  0  -0.308438  -0.246593  0  3.497212  0
N  N359  1  0.96274154  0.12708326  0.79072050  1  -1.221069  0  -0.308519  -0.246561  0  3.497103  0
N  N360  1  0.61495013  0.75977161  0.26120959  1  -1.230512  0  -0.343423  -0.308013  0  3.570355  0
N  N361  1  0.11494868  0.74022864  0.23878831  1  -1.23047  0  -0.343449  -0.308097  0  3.570537  0
N  N362  1  0.38504962  0.24022731  0.73878986  1  -1.230562  0  -0.343404  -0.307944  0  3.570324  0
N  N363  1  0.88504924  0.25977264  0.76121286  1  -1.230308  0  -0.343417  -0.307958  0  3.570318  0
N  N364  1  0.89221760  0.75448468  0.75014127  1  -1.217863  0  -0.343625  -0.308749  0  3.561312  0
N  N365  1  0.39221793  0.74551834  0.74985929  1  -1.21788  0  -0.343578  -0.30865  0  3.561415  0
N  N366  1  0.10778277  0.24551542  0.24986094  1  -1.217821  0  -0.343674  -0.308737  0  3.561215  0
N  N367  1  0.60778060  0.25447998  0.25014287  1  -1.217574  0  -0.34362  -0.308722  0  3.561488  0
O  O368  1  0.51741443  0.18026359  0.39719085  1  -1.167324  0  -0.334933  -0.547198  0  2.213305  0
O  O369  1  0.01742236  0.31973426  0.10280989  1  -1.166514  0  -0.334993  -0.54731  0  2.213381  0
O  O370  1  0.48257674  0.81973475  0.60280749  1  -1.166597  0  -0.334958  -0.547348  0  2.213344  0
O  O371  1  0.98258046  0.68026407  0.89718954  1  -1.166347  0  -0.334955  -0.547285  0  2.213338  0
O  O372  1  0.36904833  0.00703164  0.67053321  1  -1.109827  0  -0.149911  -0.224275  0  2.614914  0
O  O373  1  0.86904850  0.49297317  0.82947135  1  -1.109825  0  -0.149873  -0.224182  0  2.615077  0
O  O374  1  0.63095204  0.99296432  0.32946341  1  -1.109985  0  -0.149654  -0.224001  0  2.6149  0
O  O375  1  0.13095433  0.50703287  0.17052891  1  -1.109641  0  -0.14991  -0.224173  0  2.614992  0
O  O376  1  0.40254018  0.13073555  0.34762406  1  -1.183717  0  -0.32801  -0.566085  0  2.17494  0
O  O377  1  0.90254645  0.36925653  0.15237329  1  -1.183777  0  -0.328124  -0.566235  0  2.174852  0
O  O378  1  0.59745038  0.86925983  0.65236871  1  -1.183577  0  -0.328145  -0.566347  0  2.175128  0
O  O379  1  0.09745638  0.63074181  0.84762395  1  -1.183565  0  -0.328011  -0.566073  0  2.174982  0
O  O380  1  0.07108667  0.81218893  0.79380103  1  -1.174228  0  -0.343583  -0.5682  0  2.220154  0
O  O381  1  0.57109182  0.68782174  0.70620890  1  -1.173981  0  -0.343561  -0.568085  0  2.220124  0
O  O382  1  0.92891370  0.18781531  0.20620407  1  -1.174262  0  -0.343561  -0.568116  0  2.220274  0
O  O383  1  0.42891284  0.31218488  0.29379466  1  -1.174068  0  -0.343539  -0.568099  0  2.220241  0
O  O384  1  0.38379687  0.51302093  0.82740588  1  -1.10184  0  -0.150805  -0.222828  0  2.594608  0
O  O385  1  0.88380710  0.98698038  0.67259081  1  -1.101892  0  -0.150774  -0.222713  0  2.594551  0
O  O386  1  0.61620044  0.48697739  0.17259572  1  -1.101922  0  -0.150752  -0.222823  0  2.594555  0
O  O387  1  0.11619634  0.01302270  0.32740553  1  -1.101902  0  -0.150782  -0.222764  0  2.594701  0
O  O388  1  0.09676406  0.73554777  0.69409881  1  -1.170931  0  -0.334944  -0.550559  0  2.110457  0
O  O389  1  0.59677276  0.76446626  0.80591122  1  -1.171442  0  -0.335047  -0.550625  0  2.110274  0
O  O390  1  0.90323019  0.26445231  0.30590723  1  -1.171179  0  -0.334872  -0.550521  0  2.110398  0
O  O391  1  0.40323067  0.23554153  0.19409565  1  -1.171231  0  -0.334912  -0.550493  0  2.110521  0
O  O392  1  0.53305810  0.70636054  0.10395574  1  -1.161608  0  -0.331703  -0.546052  0  2.148004  0
O  O393  1  0.03305909  0.79363260  0.39604089  1  -1.161507  0  -0.331801  -0.546198  0  2.147951  0
O  O394  1  0.46693920  0.29362708  0.89605200  1  -1.161313  0  -0.331706  -0.546185  0  2.147716  0
O  O395  1  0.96694557  0.20636096  0.60396380  1  -1.162362  0  -0.331717  -0.546105  0  2.148103  0
O  O396  1  0.42657140  0.64678428  0.15445952  1  -1.184697  0  -0.333865  -0.566889  0  2.223428  0
O  O397  1  0.92657324  0.85321547  0.34554019  1  -1.184674  0  -0.333884  -0.566937  0  2.223394  0
O  O398  1  0.57341793  0.35321166  0.84554472  1  -1.18469  0  -0.333871  -0.566952  0  2.22358  0
O  O399  1  0.07343510  0.14678227  0.65446030  1  -1.18487  0  -0.333871  -0.566948  0  2.223505  0
O  O400  1  0.06633397  0.32367080  0.72123656  1  -1.173961  0  -0.338907  -0.565016  0  2.242484  0
O  O401  1  0.56633605  0.17632615  0.77876478  1  -1.173706  0  -0.338853  -0.564953  0  2.242333  0
O  O402  1  0.93366517  0.67632692  0.27876557  1  -1.174041  0  -0.338862  -0.564975  0  2.242373  0
O  O403  1  0.43366739  0.82367753  0.22123049  1  -1.174267  0  -0.338914  -0.565005  0  2.242279  0
O  O404  1  0.10203170  0.24765590  0.81341325  1  -1.168694  0  -0.336218  -0.55382  0  2.106686  0
O  O405  1  0.60203515  0.25234021  0.68658528  1  -1.16855  0  -0.336179  -0.553808  0  2.106727  0
O  O406  1  0.89796806  0.75234006  0.18658499  1  -1.168586  0  -0.33621  -0.553806  0  2.106683  0
O  O407  1  0.39797196  0.74766525  0.31341169  1  -1.1688  0  -0.336195  -0.553837  0  2.107046  0
