# generated using pymatgen
data_DyH12C24(NO)6
_symmetry_space_group_name_H-M   'P 1'
_cell_length_a   14.88195167
_cell_length_b   21.91565417
_cell_length_c   29.02030910
_cell_angle_alpha   89.99860807
_cell_angle_beta   103.36252960
_cell_angle_gamma   90.01241115
_symmetry_Int_Tables_number   1
_chemical_formula_structural   DyH12C24(NO)6
_chemical_formula_sum   'Dy8 H96 C192 N48 O48'
_cell_volume   9208.66576270
_cell_formula_units_Z   8
loop_
 _symmetry_equiv_pos_site_id
 _symmetry_equiv_pos_as_xyz
  1  'x, y, z'
loop_
 _atom_site_type_symbol
 _atom_site_label
 _atom_site_symmetry_multiplicity
 _atom_site_fract_x
 _atom_site_fract_y
 _atom_site_fract_z
 _atom_site_occupancy
 _atom_site_pbe_bader_charge
 _atom_site_pbe_bader_spin_density
 _atom_site_pbe_cm5_charge
 _atom_site_pbe_ddec_charge
 _atom_site_pbe_ddec_spin_density
 _atom_site_pbe_ddec_sum_bond_order
 _atom_site_pbe_magmom
Dy  Dy0  1  0.67572923  0.24771892  0.76557851  1  2.163214  -6.9e-05  1.555672  2.071619  -0.000247  2.216814  0.0
Dy  Dy1  1  0.09226729  0.73786139  0.26651630  1  2.165229  0.001731  1.54677  2.068871  0.002396  2.169407  0.002
Dy  Dy2  1  0.82455392  0.74765739  0.23465167  1  2.163805  0.000766  1.554902  2.07225  0.001171  2.213786  0.001
Dy  Dy3  1  0.40786224  0.23788978  0.73336174  1  2.166467  0.000249  1.545271  2.069687  0.000447  2.165395  0.0
Dy  Dy4  1  0.32431788  0.75230023  0.23437509  1  2.163589  -6.1e-05  1.555876  2.071829  -0.000239  2.217328  0.0
Dy  Dy5  1  0.90794076  0.26211945  0.73340608  1  2.165631  0.000259  1.545812  2.069759  0.000459  2.166458  0.0
Dy  Dy6  1  0.17570792  0.25232436  0.76553105  1  2.163711  -9.2e-05  1.55591  2.071701  -0.000288  2.217539  0.0
Dy  Dy7  1  0.59199079  0.76203901  0.26657643  1  2.166171  0.000274  1.545869  2.069815  0.000478  2.166715  0.0
H  H8  1  0.17378797  0.83322727  0.08644758  1  0.097452  0.000406  0.112183  0.116214  0.001186  0.995871  0.0
H  H9  1  0.04333315  0.87035514  0.02238764  1  0.166784  0.000131  0.111644  0.123942  0.00053  1.039281  0.002
H  H10  1  0.85430729  0.76220691  0.08176931  1  0.127995  0.001035  0.116637  0.12467  0.001826  0.983423  0.002
H  H11  1  0.98457654  0.72702785  0.14615835  1  0.131221  0.000608  0.110937  0.11948  0.001532  1.049476  0.0
H  H12  1  0.85327646  0.01069961  0.85141969  1  0.118513  0.000383  0.10666  0.115144  0.000135  1.040801  -0.001
H  H13  1  0.87911707  0.08963049  0.79452965  1  0.102059  0.00012  0.105571  0.110994  -0.000702  1.01684  0.0
H  H14  1  0.16546442  0.10362779  0.86708734  1  0.129805  -0.000278  0.117365  0.127493  -0.001302  0.975055  0.0
H  H15  1  0.14048669  0.02449709  0.92538329  1  0.102922  -0.000992  0.114913  0.122534  -0.001912  0.976112  -0.002
H  H16  1  0.52151392  0.94425094  0.83842752  1  0.106163  -0.000785  0.118113  0.124908  -0.001722  0.974726  -0.002
H  H17  1  0.45232789  0.03133531  0.78518544  1  0.105022  -0.000221  0.116168  0.125812  -0.001219  0.979013  0.001
H  H18  1  0.67167278  0.14899591  0.85808805  1  0.113201  -0.000281  0.112747  0.120122  -0.0011  1.038862  0.0
H  H19  1  0.74163926  0.06322775  0.91027745  1  0.113757  -0.000578  0.110673  0.117508  -0.001005  1.013953  -0.001
H  H20  1  0.42695284  0.33334537  0.58994072  1  0.104311  0.000452  0.111818  0.116783  0.001255  0.9944  0.0
H  H21  1  0.48947210  0.36566224  0.52131880  1  0.168577  0.000375  0.112192  0.124453  0.000983  1.044805  0.002
H  H22  1  0.73049034  0.25306517  0.57354840  1  0.116587  0.001007  0.117588  0.125375  0.001977  0.975845  0.002
H  H23  1  0.66763273  0.22181645  0.64246099  1  0.119693  0.000485  0.111983  0.119555  0.001403  1.025375  0.0
H  H24  1  0.66557658  0.55816009  0.40473555  1  0.120407  -0.00059  0.111265  0.118212  -0.00098  1.013158  -0.001
H  H25  1  0.67694822  0.64645026  0.35259081  1  0.145649  -0.00018  0.1137  0.126468  -0.001108  1.033166  0.0
H  H26  1  0.81818166  0.53473413  0.26936755  1  0.100841  -0.000151  0.11314  0.121604  -0.001055  0.987476  0.001
H  H27  1  0.80819920  0.44512626  0.32229868  1  0.079572  -0.000614  0.118684  0.124902  -0.00168  0.97392  -0.002
H  H28  1  0.49549472  0.50888864  0.35091260  1  0.129369  0.000228  0.107285  0.11635  3e-05  1.034842  -0.001
H  H29  1  0.40994226  0.59067218  0.29926315  1  0.080575  -0.000269  0.112952  0.122271  -0.001136  0.983315  0.0
H  H30  1  0.21513114  0.60438492  0.38766833  1  0.121718  -0.000363  0.117267  0.128442  -0.001345  0.974091  0.0
H  H31  1  0.30099326  0.52231984  0.44063465  1  0.093914  -0.000773  0.11355  0.121233  -0.001732  0.977891  -0.002
H  H32  1  0.32619452  0.33316297  0.91348434  1  0.096449  0.000407  0.112069  0.116037  0.001187  0.996149  0.0
H  H33  1  0.45660829  0.37027609  0.97757629  1  0.168451  0.000141  0.111412  0.123422  0.000526  1.039638  0.002
H  H34  1  0.64567541  0.26219019  0.91821340  1  0.128808  0.001039  0.116448  0.124321  0.001824  0.98351  0.002
H  H35  1  0.51542367  0.22701360  0.85379537  1  0.129276  0.000611  0.110893  0.119401  0.001533  1.049655  0.0
H  H36  1  0.64665989  0.51068079  0.14855247  1  0.118679  0.000382  0.106627  0.115017  0.000138  1.040792  -0.001
H  H37  1  0.62080435  0.58961697  0.20543414  1  0.102709  0.000125  0.105582  0.110825  -0.000697  1.016771  0.0
H  H38  1  0.33449477  0.60358016  0.13283739  1  0.133498  -0.00027  0.117366  0.127269  -0.001303  0.975239  0.0
H  H39  1  0.35946458  0.52443724  0.07454264  1  0.101087  -0.000975  0.114842  0.122325  -0.00191  0.975897  -0.002
H  H40  1  0.97841022  0.44424754  0.16156077  1  0.105656  -0.00079  0.118014  0.124652  -0.001722  0.974575  -0.002
H  H41  1  0.04762147  0.53136726  0.21478356  1  0.106559  -0.000216  0.116181  0.125965  -0.001221  0.978727  0.001
H  H42  1  0.82830604  0.64898084  0.14189007  1  0.113827  -0.000278  0.112797  0.12027  -0.001099  1.03895  0.0
H  H43  1  0.75833567  0.56318853  0.08968971  1  0.113957  -0.000561  0.110707  0.117619  -0.001  1.013988  -0.001
H  H44  1  0.07418641  0.83289802  0.41034030  1  0.0957  -0.000198  0.11166  0.115483  -0.001182  0.994631  0.001
H  H45  1  0.00987155  0.86704585  0.47784378  1  0.168192  0.000907  0.111643  0.12347  0.001179  1.04205  -0.001
H  H46  1  0.76923147  0.75420627  0.42571263  1  0.106214  -0.000863  0.117679  0.125575  -0.001889  0.974619  -0.002
H  H47  1  0.83337343  0.72163493  0.35753081  1  0.112283  0.000108  0.111599  0.118299  -0.000864  1.025754  0.0
H  H48  1  0.83358736  0.05849599  0.59501458  1  0.12118  -0.000495  0.111072  0.11769  -0.000769  1.010402  -0.001
H  H49  1  0.82261544  0.14670069  0.64726851  1  0.145968  -0.000143  0.113403  0.126334  -0.001017  1.033217  0.0
H  H50  1  0.68310990  0.03464310  0.73109639  1  0.113662  -0.000101  0.113089  0.121006  -0.00104  0.987935  0.001
H  H51  1  0.69294136  0.94507245  0.67814226  1  0.113425  -0.000762  0.118423  0.125021  -0.001648  0.973692  -0.002
H  H52  1  0.00524471  0.00836427  0.64979833  1  0.129119  0.00055  0.107107  0.115717  0.000565  1.035417  -0.001
H  H53  1  0.09025304  0.09084410  0.70082111  1  0.079011  -0.000257  0.112781  0.122013  -0.001102  0.98354  0.0
H  H54  1  0.28411704  0.10447204  0.61189399  1  0.10797  -0.000363  0.11732  0.128687  -0.0013  0.974329  0.0
H  H55  1  0.19894254  0.02148390  0.55967096  1  0.086093  -0.000726  0.113858  0.121715  -0.001712  0.975726  -0.002
H  H56  1  0.82620113  0.16682610  0.91350604  1  0.096805  0.000406  0.112105  0.1161  0.001186  0.996059  0.0
H  H57  1  0.95660622  0.12967997  0.97758454  1  0.167462  0.00013  0.111667  0.123845  0.000527  1.039123  0.002
H  H58  1  0.14572944  0.23779034  0.91824233  1  0.127776  0.001029  0.116539  0.124357  0.001822  0.983799  0.002
H  H59  1  0.01550303  0.27299130  0.85383459  1  0.130074  0.000608  0.11098  0.11949  0.001535  1.049824  0.0
H  H60  1  0.14667050  0.98926661  0.14855925  1  0.119629  0.00038  0.106755  0.115253  0.000136  1.040649  -0.001
H  H61  1  0.12083058  0.91033207  0.20544731  1  0.102256  0.000129  0.105645  0.110802  -0.000703  1.016911  0.0
H  H62  1  0.83446250  0.89637127  0.13291644  1  0.131392  -0.000276  0.117292  0.127481  -0.001303  0.97524  0.0
H  H63  1  0.85944299  0.97550471  0.07462254  1  0.102569  -0.000982  0.11485  0.122177  -0.001906  0.976388  -0.002
H  H64  1  0.47845237  0.05576912  0.16156819  1  0.105773  -0.000784  0.118118  0.124847  -0.001723  0.974685  -0.002
H  H65  1  0.54763012  0.96866148  0.21478929  1  0.105457  -0.00022  0.116074  0.125827  -0.00122  0.978848  0.001
H  H66  1  0.32830389  0.85101183  0.14185927  1  0.113875  -0.000277  0.112632  0.119889  -0.0011  1.039177  0.0
H  H67  1  0.25834569  0.93680235  0.08969049  1  0.114036  -0.000562  0.110756  0.117751  -0.001002  1.014002  -0.001
H  H68  1  0.57298652  0.66663772  0.41003628  1  0.105326  0.00044  0.111765  0.116738  0.00121  0.99461  0.0
H  H69  1  0.51049074  0.63432770  0.47866857  1  0.169676  0.000378  0.112193  0.124342  0.000989  1.045048  0.002
H  H70  1  0.26946628  0.74693208  0.42645339  1  0.116133  0.000951  0.117659  0.125533  0.001834  0.97563  0.002
H  H71  1  0.33228936  0.77816391  0.35753360  1  0.114607  0.00053  0.112131  0.120119  0.001408  1.025211  0.0
H  H72  1  0.33441388  0.44181845  0.59528025  1  0.120733  -0.000596  0.111327  0.118297  -0.001  1.012907  -0.001
H  H73  1  0.32304638  0.35353375  0.64742617  1  0.145758  -0.000188  0.113658  0.126382  -0.001067  1.033282  0.0
H  H74  1  0.18180189  0.46525125  0.73064985  1  0.100976  -0.000152  0.113014  0.121444  -0.001058  0.987112  0.001
H  H75  1  0.19178919  0.55485364  0.67771550  1  0.0799  -0.000617  0.118536  0.124684  -0.00168  0.973976  -0.002
H  H76  1  0.50459519  0.49107941  0.64909880  1  0.129176  0.000227  0.107342  0.116185  3.1e-05  1.0348  -0.001
H  H77  1  0.59017115  0.40928355  0.70071588  1  0.081096  -0.000275  0.112762  0.12219  -0.001136  0.983368  0.0
H  H78  1  0.78491045  0.39562009  0.61226670  1  0.120489  -0.000378  0.117332  0.128587  -0.001356  0.974175  0.0
H  H79  1  0.69904487  0.47772532  0.55934787  1  0.09321  -0.000759  0.113382  0.120746  -0.001726  0.977991  -0.002
H  H80  1  0.67394511  0.66680417  0.08656845  1  0.095082  0.000408  0.111964  0.116003  0.001185  0.995529  0.0
H  H81  1  0.54353963  0.62970930  0.02247094  1  0.168868  0.000148  0.111466  0.123677  0.000526  1.039311  0.002
H  H82  1  0.35445526  0.73782212  0.08180077  1  0.129051  0.001043  0.116388  0.124297  0.001825  0.983249  0.002
H  H83  1  0.48468835  0.77300738  0.14620762  1  0.129938  0.000615  0.110843  0.119286  0.001538  1.049795  0.0
H  H84  1  0.35328500  0.48930413  0.85142174  1  0.118459  0.000389  0.106648  0.115095  0.000137  1.040862  -0.001
H  H85  1  0.37909149  0.41036293  0.79453840  1  0.101675  0.000121  0.105604  0.111058  -0.000699  1.016718  0.0
H  H86  1  0.66542526  0.39638285  0.86709700  1  0.130594  -0.000277  0.117491  0.127541  -0.001302  0.975091  0.0
H  H87  1  0.64048930  0.47552578  0.92538991  1  0.10238  -0.000985  0.114875  0.12236  -0.001911  0.976108  -0.002
H  H88  1  0.02156573  0.55573236  0.83846710  1  0.105692  -0.000788  0.117979  0.124716  -0.00172  0.974672  -0.002
H  H89  1  0.95243254  0.46863410  0.78521015  1  0.10698  -0.000215  0.116213  0.125982  -0.001217  0.978943  0.001
H  H90  1  0.17175556  0.35102873  0.85811591  1  0.160699  -0.000159  0.112754  0.120258  -0.001098  1.038688  0.0
H  H91  1  0.24167620  0.43681054  0.91033035  1  0.113147  -0.000558  0.110681  0.117707  -0.001002  1.013871  -0.001
H  H92  1  0.92673983  0.16689168  0.58986780  1  0.1059  0.000442  0.111621  0.116172  0.001246  0.995014  0.0
H  H93  1  0.98924366  0.13448951  0.52126911  1  0.168982  0.000356  0.112114  0.124195  0.000934  1.045854  0.002
H  H94  1  0.23053907  0.24687239  0.57355276  1  0.116253  0.001002  0.117771  0.125563  0.001983  0.975564  0.002
H  H95  1  0.16765236  0.27825607  0.64241309  1  0.115454  0.000522  0.111912  0.119549  0.001411  1.025682  0.0
H  H96  1  0.16535895  0.94168234  0.40460586  1  0.120157  -0.000579  0.111294  0.118207  -0.001048  1.013243  -0.001
H  H97  1  0.17699593  0.85342657  0.35249007  1  0.144563  -8.3e-05  0.113456  0.126412  -0.000981  1.033711  0.0
H  H98  1  0.31826799  0.96530176  0.26935479  1  0.100456  -0.000157  0.113147  0.121408  -0.001064  0.986953  0.001
H  H99  1  0.30801730  0.05487375  0.32226404  1  0.080638  -0.000607  0.118607  0.124815  -0.001683  0.974164  -0.002
H  H100  1  0.99524467  0.99080527  0.35118773  1  0.12918  0.000235  0.107155  0.115903  -2e-06  1.036038  -0.001
H  H101  1  0.90968546  0.90895738  0.29959790  1  0.081676  -0.000276  0.112425  0.121118  -0.001129  0.984584  0.0
H  H102  1  0.71403025  0.89603111  0.38760412  1  0.126046  -4e-05  0.117476  0.128898  -0.001017  0.974119  0.0
H  H103  1  0.79974454  0.97824084  0.44043458  1  0.091957  -0.000621  0.113263  0.120516  -0.001684  0.977801  -0.002
C  C104  1  0.16659324  0.76166621  0.15943740  1  1.512005  -0.016933  0.220373  0.61873  -0.016112  4.146584  -0.001
C  C105  1  0.08753998  0.77837280  0.12043514  1  -0.099007  -0.186315  0.004727  -0.005185  -0.185378  3.907299  -0.112
C  C106  1  0.10333890  0.81827524  0.08489360  1  -0.065217  0.042884  -0.072235  -0.078705  0.043533  3.953721  0.034
C  C107  1  0.03157944  0.83905475  0.04945338  1  -0.027577  -0.141256  -0.068398  -0.124862  -0.138945  3.849672  -0.081
C  C108  1  0.93851402  0.81938924  0.04778016  1  0.534079  0.012827  0.126375  0.247917  0.0157  4.021923  0.028
C  C109  1  0.92492004  0.77678570  0.08319590  1  -0.074279  -0.161101  -0.05631  -0.104539  -0.159437  3.845653  -0.094
C  C110  1  0.99742629  0.75734319  0.11878705  1  0.032244  0.046929  -0.079954  -0.09863  0.046681  3.957125  0.036
C  C111  1  0.85376179  0.87968779  0.98226908  1  1.517671  -0.002406  0.339549  0.500652  -0.005421  4.092048  0.003
C  C112  1  0.75655332  0.93868772  0.92792290  1  1.468529  -0.020123  0.339323  0.501438  -0.01502  4.117591  -0.022
C  C113  1  0.91282554  0.94837210  0.93728742  1  1.5212  -0.016415  0.341376  0.516368  -0.009462  4.103444  -0.02
C  C114  1  0.99507438  0.01296531  0.89377581  1  0.551705  -0.009464  0.123234  0.251305  -0.012041  4.028411  -0.026
C  C115  1  0.92111298  0.03092709  0.85483881  1  -0.035034  0.149044  -0.075141  -0.136645  0.149747  3.876259  0.086
C  C116  1  0.93582488  0.07477269  0.82322721  1  -0.033917  -0.04166  -0.079877  -0.085277  -0.041061  3.968739  -0.033
C  C117  1  0.02341770  0.10175763  0.82766895  1  -0.016216  0.18787  0.001312  -0.012811  0.189805  3.89812  0.114
C  C118  1  0.09806550  0.08266615  0.86422632  1  -0.044371  -0.044625  -0.075843  -0.087003  -0.044224  3.962733  -0.034
C  C119  1  0.08445585  0.03929563  0.89630806  1  -0.070186  0.148717  -0.063464  -0.116807  0.148748  3.869913  0.087
C  C120  1  0.03682134  0.15193195  0.79530876  1  1.551273  0.011352  0.23513  0.640972  0.010261  4.172736  -0.002
C  C121  1  0.63747060  0.99692306  0.87688258  1  0.576193  -0.01648  0.126783  0.250224  -0.018637  4.046351  -0.031
C  C122  1  0.55321416  0.98934383  0.84158906  1  -0.059765  0.147514  -0.063567  -0.124406  0.147982  3.884848  0.086
C  C123  1  0.51566102  0.03697068  0.81251247  1  -0.036296  -0.042968  -0.07433  -0.088288  -0.042427  3.964484  -0.034
C  C124  1  0.55888791  0.09470876  0.81810567  1  -0.024939  0.180689  0.005753  0.000347  0.182551  3.89494  0.109
C  C125  1  0.63982992  0.10395869  0.85383517  1  -0.022199  -0.042541  -0.072283  -0.079327  -0.041841  3.936458  -0.033
C  C126  1  0.67901047  0.05636911  0.88281344  1  -0.027836  0.146168  -0.06938  -0.132766  0.146608  3.875335  0.085
C  C127  1  0.51542425  0.14491994  0.78673488  1  1.52242  0.015169  0.214904  0.605529  0.014433  4.162192  0.0
C  C128  1  0.50354206  0.26237047  0.66153857  1  1.512021  -0.017256  0.222499  0.617737  -0.016422  4.150514  -0.001
C  C129  1  0.54328493  0.27623858  0.62054029  1  -0.040702  -0.186082  0.005327  -0.007074  -0.185165  3.905598  -0.113
C  C130  1  0.49334557  0.31631275  0.58576932  1  -0.05604  0.042958  -0.073043  -0.078466  0.043549  3.965076  0.034
C  C131  1  0.52770020  0.33452981  0.54786834  1  -0.046347  -0.138467  -0.069902  -0.128609  -0.136284  3.862275  -0.079
C  C132  1  0.61590332  0.31222222  0.54268679  1  0.534404  0.011817  0.127523  0.24959  0.014894  4.018079  0.028
C  C133  1  0.66352500  0.26943202  0.57747891  1  -0.050966  -0.163741  -0.055953  -0.105614  -0.162543  3.838924  -0.096
C  C134  1  0.62847773  0.25230726  0.61559685  1  -0.001628  0.048066  -0.076366  -0.091879  0.047913  3.948702  0.037
C  C135  1  0.63251587  0.37140050  0.47512544  1  1.499037  -0.003655  0.340349  0.501832  -0.006905  4.088843  0.002
C  C136  1  0.52888968  0.44202338  0.43551030  1  1.507068  -0.017  0.342568  0.516109  -0.009873  4.107219  -0.021
C  C137  1  0.67225516  0.43347457  0.41993967  1  1.520911  -0.02192  0.339527  0.499481  -0.016811  4.115452  -0.024
C  C138  1  0.73404099  0.49458108  0.36619106  1  0.541189  -0.018192  0.12618  0.248244  -0.020068  4.039721  -0.031
C  C139  1  0.69807244  0.55306204  0.37503223  1  -0.075937  0.144821  -0.06913  -0.129767  0.145117  3.876729  0.085
C  C140  1  0.70476835  0.60211196  0.34609670  1  -0.031912  -0.041706  -0.07465  -0.086806  -0.040958  3.937175  -0.033
C  C141  1  0.74693413  0.59541501  0.30755581  1  -0.027558  0.172228  0.00173  -0.005606  0.1739  3.905897  0.104
C  C142  1  0.78447352  0.53856860  0.29882028  1  -0.029998  -0.041733  -0.074832  -0.088314  -0.041222  3.963588  -0.033
C  C143  1  0.77937997  0.48950146  0.32780698  1  -0.004624  0.143449  -0.062658  -0.119695  0.14459  3.876867  0.084
C  C144  1  0.40532390  0.51057312  0.40053728  1  0.519449  -0.006662  0.124592  0.254173  -0.010039  4.029313  -0.025
C  C145  1  0.43473113  0.52977822  0.35896861  1  0.03813  0.145721  -0.075899  -0.140839  0.146762  3.880045  0.085
C  C146  1  0.38713210  0.57515004  0.33040616  1  -0.06143  -0.040898  -0.07695  -0.083617  -0.040665  3.962391  -0.033
C  C147  1  0.30845542  0.60265225  0.34082836  1  -0.055111  0.187664  0.004594  -0.009201  0.188805  3.895553  0.113
C  C148  1  0.27639238  0.58296332  0.38039119  1  -0.044976  -0.044252  -0.074797  -0.085821  -0.043907  3.962008  -0.034
C  C149  1  0.32343464  0.53802630  0.40946651  1  -0.026568  0.148398  -0.063238  -0.117417  0.14898  3.871037  0.087
C  C150  1  0.26004681  0.65326458  0.31090901  1  1.578394  0.009653  0.231538  0.637887  0.008874  4.168295  -0.003
C  C151  1  0.75658510  0.64808085  0.27720021  1  1.505868  0.016055  0.211797  0.596637  0.015187  4.183641  0.001
C  C152  1  0.33343976  0.26164594  0.84045839  1  1.512409  -0.016944  0.220552  0.619369  -0.016123  4.145028  -0.001
C  C153  1  0.41245773  0.27834286  0.87949648  1  -0.092623  -0.186294  0.004571  -0.005867  -0.185447  3.907806  -0.112
C  C154  1  0.39663525  0.31822220  0.91504414  1  -0.070767  0.042765  -0.071995  -0.078177  0.043496  3.955391  0.034
C  C155  1  0.46836766  0.33899290  0.95050041  1  -0.028469  -0.141188  -0.068294  -0.124613  -0.138898  3.850693  -0.081
C  C156  1  0.56143834  0.31934302  0.95219445  1  0.534035  0.012853  0.126255  0.247863  0.01572  4.021958  0.028
C  C157  1  0.57505155  0.27675130  0.91677626  1  -0.072871  -0.161052  -0.056001  -0.103734  -0.159378  3.845622  -0.094
C  C158  1  0.50257071  0.25731658  0.88117333  1  0.031149  0.04686  -0.079896  -0.098652  0.04664  3.958355  0.036
C  C159  1  0.64617576  0.37964776  0.01771750  1  1.513544  -0.002407  0.339568  0.500637  -0.005406  4.091645  0.003
C  C160  1  0.74338350  0.43864842  0.07207043  1  1.467938  -0.020096  0.339678  0.50195  -0.015011  4.117141  -0.022
C  C161  1  0.58712136  0.44834288  0.06267592  1  1.523964  -0.016412  0.341681  0.517129  -0.009455  4.102549  -0.02
C  C162  1  0.50487584  0.51293149  0.10617487  1  0.548642  -0.009444  0.123158  0.251055  -0.012078  4.027787  -0.026
C  C163  1  0.57882653  0.53089700  0.14512302  1  -0.034396  0.148982  -0.07477  -0.135787  0.149725  3.875029  0.086
C  C164  1  0.56410687  0.57474032  0.17672877  1  -0.033444  -0.041654  -0.079664  -0.085026  -0.041047  3.967982  -0.033
C  C165  1  0.47652155  0.60171966  0.17226965  1  -0.018585  0.187899  0.001028  -0.013546  0.189803  3.897872  0.114
C  C166  1  0.40188822  0.58262291  0.13570435  1  -0.044259  -0.044654  -0.075325  -0.086132  -0.044234  3.962943  -0.034
C  C167  1  0.41549680  0.53925178  0.10362879  1  -0.071024  0.14878  -0.063824  -0.117023  0.148848  3.870229  0.087
C  C168  1  0.46313018  0.65190191  0.20461109  1  1.549825  0.011322  0.235588  0.642181  0.010252  4.170346  -0.002
C  C169  1  0.86247354  0.49691428  0.12309677  1  0.575771  -0.016503  0.126563  0.250559  -0.018632  4.045759  -0.031
C  C170  1  0.94672750  0.48934498  0.15839806  1  -0.059161  0.147528  -0.063462  -0.124509  0.147994  3.885352  0.086
C  C171  1  0.98429567  0.53697534  0.18746059  1  -0.036331  -0.042944  -0.074399  -0.088227  -0.042398  3.964685  -0.034
C  C172  1  0.94107523  0.59470130  0.18184919  1  -0.038304  0.180925  0.005841  0.000606  0.182688  3.894696  0.109
C  C173  1  0.86012381  0.60393952  0.14612736  1  -0.013402  -0.042525  -0.07245  -0.079601  -0.041802  3.937017  -0.033
C  C174  1  0.82094081  0.55634919  0.11715725  1  -0.030158  0.146191  -0.069177  -0.132792  0.146601  3.8763  0.085
C  C175  1  0.98463752  0.64493066  0.21318147  1  1.527518  0.015166  0.21478  0.603889  0.014572  4.162823  0.0
C  C176  1  0.99752011  0.76201119  0.33862108  1  1.494986  0.016937  0.221417  0.61664  0.015669  4.149182  0.001
C  C177  1  0.95793506  0.77571425  0.37968332  1  -0.029085  0.178009  0.002896  -0.01182  0.180226  3.914046  0.108
C  C178  1  0.00764036  0.81596496  0.41437391  1  -0.059927  -0.040609  -0.072516  -0.075701  -0.040534  3.961583  -0.032
C  C179  1  0.97232430  0.83504343  0.45177858  1  0.006435  0.14087  -0.071174  -0.131054  0.141722  3.86893  0.082
C  C180  1  0.88391308  0.81314790  0.45660712  1  0.480191  -0.01783  0.124976  0.246137  -0.020971  4.02309  -0.032
C  C181  1  0.83655150  0.77021949  0.42204683  1  -0.046138  0.161838  -0.056284  -0.105733  0.16265  3.841372  0.095
C  C182  1  0.87242794  0.75224427  0.38433285  1  0.009037  -0.039663  -0.075388  -0.089004  -0.038331  3.949396  -0.032
C  C183  1  0.86644062  0.87206003  0.52412847  1  1.489195  -0.036943  0.338378  0.493768  -0.027294  4.094797  -0.04
C  C184  1  0.97181038  0.94110319  0.56517169  1  1.506361  -0.036083  0.341102  0.506944  -0.027334  4.110734  -0.039
C  C185  1  0.82729190  0.93380389  0.57988830  1  1.520549  -0.03812  0.339499  0.495463  -0.030003  4.121742  -0.041
C  C186  1  0.76611233  0.99473759  0.63392479  1  0.537474  -0.020751  0.125132  0.247511  -0.022202  4.041226  -0.033
C  C187  1  0.80163745  0.05325351  0.62491850  1  -0.085555  0.14574  -0.06974  -0.130886  0.145794  3.879963  0.086
C  C188  1  0.79514129  0.10229741  0.65390405  1  -0.028186  -0.041514  -0.074473  -0.086827  -0.040623  3.938403  -0.032
C  C189  1  0.75347606  0.09551956  0.69261469  1  -0.036496  0.170773  0.000936  -0.007167  0.17223  3.907926  0.103
C  C190  1  0.71643947  0.03858158  0.70151392  1  -0.044756  -0.042216  -0.074697  -0.085529  -0.041679  3.963995  -0.033
C  C191  1  0.72145813  0.98951138  0.67251285  1  -0.039163  0.143741  -0.063578  -0.123252  0.144529  3.880649  0.084
C  C192  1  0.09508111  0.00985375  0.60003162  1  0.570483  -0.009015  0.122556  0.252868  -0.011597  4.02865  -0.026
C  C193  1  0.06562295  0.02942231  0.64143780  1  -0.079174  0.142397  -0.07571  -0.14056  0.143029  3.884057  0.083
C  C194  1  0.11299041  0.07516982  0.66969698  1  0.051751  -0.040101  -0.076988  -0.083385  -0.039408  3.961438  -0.031
C  C195  1  0.19136192  0.10276564  0.65902271  1  -0.057478  0.181037  0.004251  -0.009488  0.182186  3.897185  0.109
C  C196  1  0.22319056  0.08290338  0.61945657  1  -0.021163  -0.043435  -0.074933  -0.086138  -0.043095  3.962951  -0.033
C  C197  1  0.17648220  0.03746484  0.59076488  1  -0.081819  0.144944  -0.063924  -0.118761  0.14481  3.871377  0.085
C  C198  1  0.23989142  0.15344348  0.68885313  1  1.575931  0.009055  0.23191  0.638931  0.008257  4.167551  -0.003
C  C199  1  0.74368485  0.14816793  0.72293547  1  1.516239  0.015676  0.212202  0.596975  0.015043  4.18252  0.0
C  C200  1  0.83349325  0.23839721  0.84050674  1  1.513869  -0.016885  0.219996  0.618217  -0.016095  4.146274  -0.001
C  C201  1  0.91249954  0.22166141  0.87952756  1  -0.100881  -0.186464  0.00448  -0.005444  -0.185494  3.907822  -0.112
C  C202  1  0.89665573  0.18176626  0.91506583  1  -0.062743  0.042873  -0.072066  -0.0785  0.043518  3.954892  0.034
C  C203  1  0.96837927  0.16097626  0.95051558  1  -0.028188  -0.141249  -0.068553  -0.124936  -0.138962  3.850036  -0.081
C  C204  1  0.06146678  0.18062397  0.95221175  1  0.5337  0.012797  0.126472  0.24829  0.015688  4.02151  0.028
C  C205  1  0.07510496  0.22322615  0.91680125  1  -0.072861  -0.161085  -0.056378  -0.104416  -0.159438  3.846211  -0.094
C  C206  1  0.00263118  0.24267961  0.88120259  1  0.031905  0.0469  -0.079839  -0.098474  0.04667  3.958119  0.036
C  C207  1  0.14617273  0.12031173  0.01772492  1  1.516491  -0.002385  0.339555  0.500927  -0.00541  4.092101  0.003
C  C208  1  0.24338466  0.06133461  0.07208357  1  1.470674  -0.020142  0.33958  0.501462  -0.015017  4.11815  -0.022
C  C209  1  0.08711105  0.05162149  0.06270132  1  1.521874  -0.016419  0.341886  0.517131  -0.009458  4.102068  -0.02
C  C210  1  0.00486291  0.98701778  0.10621542  1  0.552654  -0.009455  0.123291  0.251621  -0.012065  4.027792  -0.026
C  C211  1  0.07882914  0.96904734  0.14514472  1  -0.034808  0.149078  -0.075164  -0.136686  0.149797  3.875752  0.086
C  C212  1  0.06411448  0.92519626  0.17675565  1  -0.033728  -0.041672  -0.080174  -0.085493  -0.041067  3.968191  -0.033
C  C213  1  0.97651475  0.89821543  0.17232033  1  -0.021972  0.188129  0.001457  -0.012267  0.190029  3.897168  0.114
C  C214  1  0.90186833  0.91732059  0.13577484  1  -0.041925  -0.044675  -0.075515  -0.087299  -0.04422  3.963217  -0.034
C  C215  1  0.91547660  0.96069385  0.10369156  1  -0.071395  0.148936  -0.063578  -0.116333  0.148961  3.869991  0.087
C  C216  1  0.96316083  0.84805525  0.20470262  1  1.553284  0.011441  0.235015  0.640782  0.010387  4.171937  -0.002
C  C217  1  0.36248810  0.00309152  0.12310051  1  0.575781  -0.016521  0.126452  0.24994  -0.018655  4.046114  -0.031
C  C218  1  0.44675421  0.01066893  0.15840034  1  -0.059281  0.147581  -0.063589  -0.124567  0.148058  3.885118  0.086
C  C219  1  0.48431150  0.96303706  0.18746537  1  -0.035972  -0.042978  -0.074257  -0.088115  -0.042434  3.964463  -0.034
C  C220  1  0.44107978  0.90530034  0.18185127  1  -0.037883  0.180876  0.005952  0.000536  0.182662  3.894169  0.109
C  C221  1  0.36014122  0.89605589  0.14611700  1  -0.013443  -0.042568  -0.072451  -0.079366  -0.041842  3.936689  -0.033
C  C222  1  0.32095721  0.94364821  0.11715246  1  -0.029721  0.146147  -0.069086  -0.132585  0.146569  3.875736  0.085
C  C223  1  0.48454896  0.85507639  0.21321134  1  1.5276  0.015087  0.21511  0.605012  0.01444  4.161755  0.0
C  C224  1  0.49639246  0.73758844  0.33843510  1  1.511822  -0.017246  0.222686  0.617748  -0.016387  4.14941  -0.001
C  C225  1  0.45664545  0.72374588  0.37943978  1  -0.03883  -0.186062  0.005137  -0.007113  -0.185177  3.904277  -0.113
C  C226  1  0.50659448  0.68367446  0.41421465  1  -0.058708  0.042919  -0.072796  -0.078371  0.04349  3.964964  0.034
C  C227  1  0.47224744  0.66545967  0.45212343  1  -0.046724  -0.138356  -0.070262  -0.12867  -0.1362  3.862506  -0.079
C  C228  1  0.38405814  0.68777137  0.45731283  1  0.535205  0.011757  0.127318  0.249168  0.014838  4.018347  0.028
C  C229  1  0.33643023  0.73055792  0.42252203  1  -0.05055  -0.163818  -0.05572  -0.105221  -0.162625  3.838089  -0.096
C  C230  1  0.37146232  0.74767765  0.38439505  1  0.002632  0.048045  -0.076426  -0.092405  0.047934  3.948261  0.037
C  C231  1  0.36748426  0.62860358  0.52489082  1  1.503818  -0.003698  0.340155  0.501278  -0.006939  4.089056  0.002
C  C232  1  0.47114291  0.55799440  0.56451084  1  1.506389  -0.017042  0.342568  0.515923  -0.009909  4.107338  -0.021
C  C233  1  0.32776706  0.56651172  0.58007886  1  1.521096  -0.021931  0.339526  0.499516  -0.016822  4.116119  -0.024
C  C234  1  0.26596189  0.50540339  0.63382621  1  0.540402  -0.018232  0.12612  0.248579  -0.020092  4.039398  -0.032
C  C235  1  0.30191663  0.44691467  0.62498582  1  -0.076148  0.144805  -0.069065  -0.12973  0.145085  3.876258  0.085
C  C236  1  0.29521727  0.39787250  0.65391956  1  -0.032119  -0.041674  -0.074857  -0.087271  -0.040849  3.937669  -0.033
C  C237  1  0.25306254  0.40456170  0.69246245  1  -0.038665  0.172593  0.001869  -0.004837  0.174009  3.904913  0.104
C  C238  1  0.21551141  0.46141176  0.70119383  1  -0.031087  -0.041755  -0.07471  -0.088456  -0.041244  3.963148  -0.033
C  C239  1  0.22061187  0.51047616  0.67220520  1  -0.004179  0.143435  -0.062664  -0.119698  0.144569  3.877248  0.084
C  C240  1  0.59472873  0.48943873  0.59946142  1  0.519105  -0.006692  0.124497  0.254073  -0.010084  4.028849  -0.025
C  C241  1  0.56534636  0.47020306  0.64102788  1  0.040355  0.145497  -0.075992  -0.14066  0.146555  3.880288  0.085
C  C242  1  0.61295092  0.42482622  0.66956893  1  -0.060463  -0.040896  -0.076683  -0.083349  -0.040669  3.962258  -0.033
C  C243  1  0.69162208  0.39732264  0.65912747  1  -0.05716  0.187692  0.004998  -0.00888  0.188847  3.895343  0.113
C  C244  1  0.72365818  0.41703849  0.61956351  1  -0.042423  -0.044249  -0.075261  -0.086972  -0.043908  3.963194  -0.034
C  C245  1  0.67661247  0.46199559  0.59051362  1  -0.029141  0.148527  -0.063095  -0.116424  0.149097  3.871192  0.087
C  C246  1  0.74000237  0.34669023  0.68904001  1  1.577873  0.009618  0.231537  0.63781  0.00881  4.168266  -0.003
C  C247  1  0.24348615  0.35191184  0.72285033  1  1.515499  0.015769  0.211471  0.595803  0.015199  4.183818  0.0
C  C248  1  0.66666877  0.73830705  0.15963998  1  1.510332  -0.016911  0.220938  0.620312  -0.01603  4.1443  -0.001
C  C249  1  0.58768881  0.72164618  0.12056126  1  -0.091681  -0.186372  0.004187  -0.006571  -0.185573  3.907853  -0.112
C  C250  1  0.60349264  0.68175953  0.08500484  1  -0.073182  0.042788  -0.071685  -0.077923  0.043545  3.955108  0.034
C  C251  1  0.53175471  0.66099659  0.04954033  1  -0.026716  -0.141203  -0.068389  -0.124877  -0.138901  3.851454  -0.081
C  C252  1  0.43867920  0.68063644  0.04783538  1  0.535375  0.012839  0.126286  0.248041  0.015672  4.022744  0.028
C  C253  1  0.42508188  0.72324595  0.08324271  1  -0.072447  -0.161081  -0.055626  -0.103216  -0.159403  3.844441  -0.094
C  C254  1  0.49756410  0.74268341  0.11884650  1  0.030167  0.046889  -0.080121  -0.098912  0.046661  3.958171  0.036
C  C255  1  0.35391069  0.62032759  0.98231796  1  1.513285  -0.00239  0.339804  0.501527  -0.005406  4.09027  0.003
C  C256  1  0.25664149  0.56134655  0.92795119  1  1.47334  -0.020097  0.339548  0.501627  -0.015022  4.117497  -0.022
C  C257  1  0.41290778  0.55164615  0.93731518  1  1.521848  -0.016403  0.341681  0.51703  -0.009461  4.101811  -0.02
C  C258  1  0.49508148  0.48704567  0.89378324  1  0.551257  -0.009459  0.123345  0.251385  -0.012054  4.028008  -0.026
C  C259  1  0.42110937  0.46908199  0.85484324  1  -0.034713  0.149007  -0.07505  -0.136294  0.149714  3.875829  0.086
C  C260  1  0.43580003  0.42523091  0.82323267  1  -0.016072  -0.041743  -0.079876  -0.085512  -0.041058  3.96849  -0.033
C  C261  1  0.52338052  0.39824153  0.82768122  1  -0.034855  0.18797  0.001381  -0.012684  0.189811  3.897889  0.114
C  C262  1  0.59803042  0.41734148  0.86423746  1  -0.043155  -0.044635  -0.07611  -0.087113  -0.044228  3.963122  -0.034
C  C263  1  0.58444809  0.46071626  0.89631682  1  -0.070581  0.148758  -0.063428  -0.116675  0.1488  3.870032  0.087
C  C264  1  0.53675600  0.34805107  0.79533549  1  1.551195  0.011327  0.234768  0.640607  0.010238  4.171817  -0.002
C  C265  1  0.13753211  0.50308707  0.87692462  1  0.577306  -0.016559  0.126373  0.250374  -0.01867  4.045982  -0.031
C  C266  1  0.05328023  0.51064998  0.84162564  1  -0.059909  0.147484  -0.063495  -0.12458  0.147941  3.885315  0.086
C  C267  1  0.01575143  0.46302556  0.81253849  1  -0.035659  -0.042968  -0.074224  -0.088136  -0.042417  3.964635  -0.034
C  C268  1  0.05899536  0.40530371  0.81813063  1  -0.03381  0.180747  0.005478  0.000182  0.182593  3.894418  0.109
C  C269  1  0.13992053  0.39606731  0.85387312  1  -0.060516  -0.042673  -0.072504  -0.079856  -0.04183  3.937098  -0.033
C  C270  1  0.17907589  0.44365809  0.88286097  1  -0.030536  0.146179  -0.068868  -0.132408  0.146585  3.875832  0.085
C  C271  1  0.01554290  0.35507892  0.78675107  1  1.5228  0.015171  0.215227  0.605543  0.014454  4.162054  0.0
C  C272  1  0.00350422  0.23774931  0.66151319  1  1.501038  -0.017664  0.222978  0.618315  -0.016315  4.148917  -0.001
C  C273  1  0.04322391  0.22388656  0.62050484  1  -0.034379  -0.185353  0.005097  -0.007073  -0.184914  3.904618  -0.113
C  C274  1  0.99319267  0.18385074  0.58572011  1  -0.058078  0.04289  -0.072951  -0.07793  0.043446  3.964934  0.034
C  C275  1  0.02752756  0.16559126  0.54782347  1  -0.047006  -0.138339  -0.070042  -0.128863  -0.136074  3.86242  -0.079
C  C276  1  0.11585397  0.18774869  0.54268714  1  0.536917  0.01174  0.127651  0.249766  0.014779  4.017451  0.028
C  C277  1  0.16352350  0.23055575  0.57746383  1  -0.050614  -0.163917  -0.055832  -0.105261  -0.162735  3.837541  -0.096
C  C278  1  0.12845284  0.24776034  0.61556352  1  0.004656  0.047873  -0.076379  -0.092417  0.047754  3.948386  0.037
C  C279  1  0.13247681  0.12839709  0.47521149  1  1.503096  -0.003543  0.34035  0.501148  -0.006767  4.090499  0.002
C  C280  1  0.02880951  0.05767304  0.43571372  1  1.509035  -0.016923  0.342001  0.517017  -0.009773  4.106374  -0.021
C  C281  1  0.17196654  0.06639772  0.41991043  1  1.509057  -0.021823  0.339346  0.499878  -0.016698  4.114623  -0.024
C  C282  1  0.23379388  0.00535729  0.36610342  1  0.545832  -0.018394  0.127012  0.250179  -0.020068  4.036506  -0.031
C  C283  1  0.19792900  0.94682219  0.37492778  1  -0.074916  0.144994  -0.069305  -0.130116  0.14523  3.875437  0.085
C  C284  1  0.20477117  0.89778835  0.34600498  1  -0.034042  -0.041514  -0.074566  -0.08742  -0.040717  3.937277  -0.033
C  C285  1  0.24700407  0.90453019  0.30748950  1  -0.037369  0.172924  0.001879  -0.004815  0.174378  3.904498  0.104
C  C286  1  0.28447986  0.96142303  0.29877744  1  -0.030839  -0.041837  -0.074596  -0.088  -0.041334  3.962621  -0.033
C  C287  1  0.27923052  0.01047998  0.32775081  1  -0.009524  0.143965  -0.062627  -0.11981  0.144922  3.876404  0.084
C  C288  1  0.90472047  0.98943895  0.40063890  1  0.473364  -0.005056  0.123023  0.252568  -0.008993  4.028501  -0.025
C  C289  1  0.93428160  0.97007528  0.35915223  1  0.03639  0.147547  -0.074311  -0.138099  0.148279  3.878207  0.086
C  C290  1  0.88670845  0.92465081  0.33064434  1  -0.046793  -0.041394  -0.07667  -0.083238  -0.040953  3.962627  -0.033
C  C291  1  0.80785498  0.89730546  0.34100920  1  -0.041194  0.189897  0.005276  -0.00643  0.191705  3.894829  0.115
C  C292  1  0.77542278  0.91734153  0.38037007  1  -0.022764  -0.043633  -0.07578  -0.089228  -0.042621  3.966489  -0.035
C  C293  1  0.82242037  0.96234342  0.40938655  1  -0.029654  0.155669  -0.063967  -0.116909  0.156866  3.871045  0.091
C  C294  1  0.75971364  0.84654187  0.31117106  1  1.568605  0.00963  0.2328  0.640653  0.008549  4.164534  -0.003
C  C295  1  0.25667305  0.85189368  0.27710393  1  1.515781  0.015757  0.212436  0.597347  0.015152  4.182338  0.0
N  N296  1  0.85967701  0.83726199  0.01802087  1  -1.062312  -0.35152  -0.27351  -0.338492  -0.337206  3.086817  -0.254
N  N297  1  0.99210759  0.97367598  0.92912258  1  -1.102656  0.359326  -0.277416  -0.346964  0.350435  3.094485  0.262
N  N298  1  0.66811787  0.94653536  0.90201982  1  -1.066649  0.370704  -0.264583  -0.316043  0.362624  3.092466  0.273
N  N299  1  0.76567060  0.89488492  0.96146494  1  -1.094087  0.057716  -0.292671  -0.414674  0.057303  3.080411  0.043
N  N300  1  0.82765402  0.96976546  0.91699935  1  -1.1348  0.078311  -0.307436  -0.465175  0.073295  3.16773  0.058
N  N301  1  0.92860527  0.90188772  0.96890667  1  -1.150717  0.095403  -0.293442  -0.430984  0.094176  3.135443  0.07
N  N302  1  0.66271026  0.32821934  0.51003547  1  -1.066273  -0.350158  -0.2731  -0.338931  -0.335858  3.068833  -0.253
N  N303  1  0.69786675  0.38832785  0.45211052  1  -1.093944  0.060842  -0.29312  -0.415496  0.060493  3.072887  0.046
N  N304  1  0.73185328  0.44308490  0.39119198  1  -1.071621  0.369233  -0.263958  -0.314388  0.361655  3.083517  0.271
N  N305  1  0.59161676  0.46482486  0.41309319  1  -1.151368  0.087758  -0.306771  -0.464031  0.082595  3.16891  0.066
N  N306  1  0.54514909  0.39299249  0.46468960  1  -1.128555  0.104482  -0.293099  -0.428311  0.103025  3.140181  0.077
N  N307  1  0.44437931  0.46848639  0.43283108  1  -1.102173  0.358754  -0.278228  -0.34807  0.350254  3.098878  0.261
N  N308  1  0.64027567  0.33721869  0.98197034  1  -1.060061  -0.351475  -0.273592  -0.338692  -0.337187  3.087088  -0.254
N  N309  1  0.50784759  0.47364986  0.07082508  1  -1.102786  0.35942  -0.277727  -0.347379  0.350521  3.094444  0.262
N  N310  1  0.83182773  0.44650645  0.09797097  1  -1.06579  0.370781  -0.265014  -0.316595  0.362753  3.091739  0.273
N  N311  1  0.73426984  0.39483485  0.03854238  1  -1.093163  0.05771  -0.292763  -0.414719  0.057301  3.080516  0.043
N  N312  1  0.67229711  0.46973036  0.08298581  1  -1.134871  0.078278  -0.307653  -0.465772  0.073256  3.167442  0.058
N  N313  1  0.57132643  0.40186632  0.03105055  1  -1.151305  0.09535  -0.29324  -0.43086  0.094136  3.134666  0.07
N  N314  1  0.83600040  0.83018372  0.48873728  1  -1.063865  0.36893  -0.271943  -0.336561  0.35878  3.084533  0.268
N  N315  1  0.80051063  0.89010583  0.54660471  1  -1.083194  0.241561  -0.291164  -0.411499  0.234848  3.060989  0.177
N  N316  1  0.76806779  0.94333790  0.60869362  1  -1.070875  0.389314  -0.263487  -0.312856  0.381384  3.086781  0.287
N  N317  1  0.90905209  0.96401880  0.58763569  1  -1.140093  0.200223  -0.298333  -0.448199  0.192752  3.151685  0.148
N  N318  1  0.95492511  0.89210183  0.53584223  1  -1.09637  0.24262  -0.283006  -0.409802  0.234153  3.109682  0.178
N  N319  1  0.05641422  0.96700378  0.56813320  1  -1.10213  0.356891  -0.277772  -0.347382  0.34792  3.107126  0.261
N  N320  1  0.14028583  0.16273890  0.98198062  1  -1.063069  -0.351432  -0.273628  -0.338786  -0.337105  3.087206  -0.254
N  N321  1  0.00783107  0.02630574  0.07086571  1  -1.104497  0.359672  -0.27761  -0.347282  0.350736  3.093304  0.262
N  N322  1  0.33183254  0.05349382  0.09798331  1  -1.06886  0.370748  -0.264837  -0.316107  0.362672  3.092139  0.273
N  N323  1  0.23426668  0.10513833  0.03854490  1  -1.092821  0.057773  -0.292749  -0.414648  0.057366  3.080656  0.043
N  N324  1  0.17228741  0.03024730  0.08301063  1  -1.134207  0.078249  -0.307752  -0.465588  0.073235  3.167219  0.058
N  N325  1  0.07132510  0.09808306  0.03106548  1  -1.150651  0.095235  -0.293478  -0.431432  0.094023  3.135658  0.07
N  N326  1  0.33727951  0.67177471  0.48997543  1  -1.066294  -0.350075  -0.273015  -0.338656  -0.335766  3.068968  -0.253
N  N327  1  0.30214443  0.61165434  0.54790601  1  -1.097752  0.060915  -0.292966  -0.415232  0.060553  3.072945  0.046
N  N328  1  0.26817585  0.55689820  0.60882806  1  -1.071711  0.369183  -0.26374  -0.314329  0.361605  3.083946  0.271
N  N329  1  0.40841860  0.53517148  0.58692311  1  -1.15148  0.087707  -0.30681  -0.464004  0.082547  3.168582  0.065
N  N330  1  0.45486831  0.60703533  0.53533836  1  -1.127861  0.104618  -0.293156  -0.428238  0.103138  3.140742  0.078
N  N331  1  0.55566848  0.53154736  0.56718635  1  -1.102221  0.35874  -0.278239  -0.348155  0.350232  3.098074  0.261
N  N332  1  0.35985568  0.66275073  0.01806389  1  -1.05953  -0.351362  -0.273873  -0.339536  -0.337035  3.088371  -0.254
N  N333  1  0.49215739  0.52633005  0.92913662  1  -1.102149  0.359351  -0.277595  -0.347242  0.35045  3.093808  0.262
N  N334  1  0.16818137  0.55348623  0.90206014  1  -1.065249  0.370802  -0.264597  -0.316259  0.362798  3.091518  0.273
N  N335  1  0.26580349  0.60514232  0.96150289  1  -1.097767  0.057803  -0.292919  -0.415076  0.057409  3.0791  0.043
N  N336  1  0.32771684  0.53028012  0.91700315  1  -1.134466  0.078242  -0.307704  -0.465484  0.073222  3.167527  0.058
N  N337  1  0.42873448  0.59809671  0.96896637  1  -1.151327  0.095203  -0.293319  -0.431248  0.093994  3.134787  0.07
N  N338  1  0.16273645  0.17159847  0.51010124  1  -1.064908  -0.350067  -0.273152  -0.338661  -0.335738  3.068709  -0.253
N  N339  1  0.19762745  0.11160514  0.45203255  1  -1.095314  0.060725  -0.292565  -0.414618  0.060374  3.073918  0.045
N  N340  1  0.23144413  0.05684822  0.39108487  1  -1.067342  0.369291  -0.264135  -0.315372  0.361536  3.083274  0.271
N  N341  1  0.09141313  0.03493081  0.41319210  1  -1.145999  0.086765  -0.307048  -0.464991  0.081565  3.167315  0.065
N  N342  1  0.04519889  0.10663376  0.46495233  1  -1.128014  0.103635  -0.293606  -0.429189  0.102263  3.142473  0.077
N  N343  1  0.94419996  0.03128513  0.43306374  1  -1.099767  0.360815  -0.278171  -0.349503  0.351954  3.097853  0.263
O  O344  1  0.15422718  0.73875135  0.19888311  1  -1.212179  -0.014927  -0.439265  -0.761018  -0.013794  2.349132  -0.012
O  O345  1  0.24849401  0.77121208  0.15516525  1  -1.157262  -0.0302  -0.368602  -0.599875  -0.028556  2.222352  -0.025
O  O346  1  0.11737784  0.17431725  0.80065091  1  -1.182666  0.022406  -0.404002  -0.651184  0.021252  2.297651  0.019
O  O347  1  0.96677931  0.17109201  0.76427017  1  -1.198226  0.019806  -0.41549  -0.703775  0.018843  2.311068  0.016
O  O348  1  0.55246903  0.19906292  0.78997505  1  -1.21033  0.014643  -0.437383  -0.760399  0.013663  2.413029  0.012
O  O349  1  0.43893451  0.13621186  0.75744959  1  -1.156928  0.031937  -0.368365  -0.590342  0.030642  2.185902  0.026
O  O350  1  0.55109562  0.23547980  0.69942720  1  -1.220749  -0.012646  -0.438122  -0.763337  -0.011359  2.330326  -0.01
O  O351  1  0.42051713  0.27718573  0.66005078  1  -1.158325  -0.033731  -0.366627  -0.592366  -0.032101  2.242312  -0.028
O  O352  1  0.29401709  0.67245165  0.27678837  1  -1.207169  0.018445  -0.425983  -0.718362  0.017471  2.348965  0.015
O  O353  1  0.18804218  0.67575855  0.32060910  1  -1.165115  0.023424  -0.388195  -0.62856  0.022312  2.267266  0.019
O  O354  1  0.72718618  0.70171873  0.28605212  1  -1.212951  0.015561  -0.438846  -0.760801  0.014373  2.417952  0.013
O  O355  1  0.79790678  0.64199929  0.24373145  1  -1.171409  0.030007  -0.36766  -0.605957  0.028741  2.20865  0.025
O  O356  1  0.34583080  0.23872233  0.80101779  1  -1.213924  -0.014963  -0.438772  -0.760938  -0.01376  2.346448  -0.012
O  O357  1  0.25154213  0.27120422  0.84470903  1  -1.157152  -0.030204  -0.369198  -0.600238  -0.028564  2.223075  -0.025
O  O358  1  0.38261280  0.67434485  0.19921182  1  -1.181561  0.022423  -0.404318  -0.651708  0.021266  2.297273  0.019
O  O359  1  0.53315287  0.67101803  0.23569029  1  -1.196661  0.019797  -0.415701  -0.704178  0.018846  2.308994  0.016
O  O360  1  0.94757244  0.69906052  0.21001579  1  -1.21069  0.014584  -0.437588  -0.759605  0.013502  2.412315  0.012
O  O361  1  0.06125711  0.63623213  0.24234947  1  -1.156425  0.032215  -0.368371  -0.589155  0.030845  2.187284  0.027
O  O362  1  0.94974162  0.73531001  0.30067250  1  -1.214893  0.014679  -0.437786  -0.763564  0.013292  2.327747  0.011
O  O363  1  0.08048365  0.77686478  0.34002498  1  -1.161642  0.032814  -0.366637  -0.590716  0.031379  2.243749  0.027
O  O364  1  0.20605517  0.17264588  0.72300895  1  -1.203238  0.017668  -0.426004  -0.718746  0.016749  2.34925  0.015
O  O365  1  0.31192275  0.17589912  0.67913340  1  -1.166441  0.021829  -0.388264  -0.629694  0.020802  2.265675  0.018
O  O366  1  0.77280436  0.20187567  0.71401636  1  -1.2167  0.015326  -0.440244  -0.762046  0.014361  2.418555  0.012
O  O367  1  0.70251380  0.14205593  0.75646149  1  -1.170193  0.029753  -0.367488  -0.605868  0.028551  2.208811  0.024
O  O368  1  0.84590559  0.26131206  0.80106928  1  -1.214845  -0.014991  -0.438257  -0.760088  -0.013791  2.346673  -0.012
O  O369  1  0.75157661  0.22887872  0.84476943  1  -1.156255  -0.030199  -0.369002  -0.600107  -0.028552  2.222569  -0.025
O  O370  1  0.88259811  0.82567315  0.19939694  1  -1.182892  0.022612  -0.403975  -0.651266  0.02138  2.29636  0.019
O  O371  1  0.03322359  0.82890295  0.23572471  1  -1.198965  0.021419  -0.415479  -0.703801  0.020339  2.310246  0.017
O  O372  1  0.44749313  0.80092793  0.20996641  1  -1.210788  0.014601  -0.437777  -0.760465  0.013623  2.413088  0.012
O  O373  1  0.56104216  0.86376713  0.24248498  1  -1.157084  0.03204  -0.368344  -0.589632  0.03068  2.186471  0.027
O  O374  1  0.44885824  0.76450786  0.30055083  1  -1.220849  -0.012596  -0.438592  -0.763843  -0.011317  2.331381  -0.01
O  O375  1  0.57938009  0.72271340  0.33990779  1  -1.158417  -0.03376  -0.36637  -0.592041  -0.03227  2.241776  -0.028
O  O376  1  0.70602864  0.32756568  0.72317506  1  -1.205434  0.018435  -0.42598  -0.718243  0.017482  2.349073  0.015
O  O377  1  0.81197177  0.32413557  0.67932747  1  -1.166542  0.022678  -0.388302  -0.628663  0.021596  2.26605  0.019
O  O378  1  0.27283052  0.29826802  0.71396886  1  -1.213323  0.015531  -0.439071  -0.760706  0.01456  2.418678  0.012
O  O379  1  0.20232194  0.35800527  0.75637153  1  -1.169594  0.029922  -0.367034  -0.605194  0.028704  2.209116  0.025
O  O380  1  0.65419764  0.76129591  0.19903766  1  -1.212868  -0.01493  -0.438425  -0.760972  -0.013756  2.346089  -0.012
O  O381  1  0.74859882  0.72866618  0.15546969  1  -1.158228  -0.029932  -0.369053  -0.600458  -0.028323  2.2233  -0.025
O  O382  1  0.61729964  0.32564920  0.80070996  1  -1.181824  0.02242  -0.403743  -0.650766  0.02126  2.297381  0.019
O  O383  1  0.46672018  0.32889570  0.76428608  1  -1.199139  0.019775  -0.415389  -0.703491  0.018809  2.310428  0.016
O  O384  1  0.05254717  0.30093126  0.79000947  1  -1.210225  0.014628  -0.437336  -0.760309  0.013648  2.413591  0.012
O  O385  1  0.93908498  0.36380027  0.75744477  1  -1.157249  0.031982  -0.368877  -0.590591  0.030692  2.186473  0.026
O  O386  1  0.05109835  0.26463117  0.69940097  1  -1.219719  -0.012584  -0.438313  -0.763638  -0.0113  2.330928  -0.01
O  O387  1  0.92047923  0.22292628  0.66003482  1  -1.158397  -0.033688  -0.366815  -0.592551  -0.032053  2.240932  -0.028
O  O388  1  0.79402362  0.82728292  0.27718755  1  -1.20272  0.020116  -0.42611  -0.719748  0.019183  2.34725  0.016
O  O389  1  0.68759739  0.82402463  0.32074841  1  -1.169178  0.024125  -0.389804  -0.63085  0.022913  2.266372  0.02
O  O390  1  0.22737399  0.79822243  0.28596108  1  -1.213764  0.01565  -0.439578  -0.761837  0.01463  2.419438  0.013
O  O391  1  0.29784617  0.85803670  0.24358366  1  -1.170221  0.029997  -0.367253  -0.60583  0.028769  2.208676  0.025
