# generated using pymatgen
data_Zn2H15C22N3O10
_symmetry_space_group_name_H-M   'P 1'
_cell_length_a   14.88450517
_cell_length_b   15.80826564
_cell_length_c   21.96439220
_cell_angle_alpha   89.99995473
_cell_angle_beta   89.99984789
_cell_angle_gamma   89.99999601
_symmetry_Int_Tables_number   1
_chemical_formula_structural   Zn2H15C22N3O10
_chemical_formula_sum   'Zn16 H120 C176 N24 O80'
_cell_volume   5168.18220552
_cell_formula_units_Z   8
loop_
 _symmetry_equiv_pos_site_id
 _symmetry_equiv_pos_as_xyz
  1  'x, y, z'
loop_
 _atom_site_type_symbol
 _atom_site_label
 _atom_site_symmetry_multiplicity
 _atom_site_fract_x
 _atom_site_fract_y
 _atom_site_fract_z
 _atom_site_occupancy
 _atom_site_pbe_bader_charge
 _atom_site_pbe_bader_spin_density
 _atom_site_pbe_cm5_charge
 _atom_site_pbe_ddec_charge
 _atom_site_pbe_ddec_spin_density
 _atom_site_pbe_ddec_sum_bond_order
 _atom_site_pbe_magmom
Zn  Zn0  1  0.58988358  0.12479751  0.85089710  1  1.303917  0  0.662337  0.948273  0  2.30118  0
Zn  Zn1  1  0.91011622  0.37520159  0.35089610  1  1.303862  0  0.662358  0.948307  0  2.301158  0
Zn  Zn2  1  0.08988377  0.37520173  0.14910387  1  1.303857  0  0.662356  0.948274  0  2.301208  0
Zn  Zn3  1  0.41011582  0.12479953  0.64910383  1  1.30382  0  0.662317  0.948265  0  2.301148  0
Zn  Zn4  1  0.41011677  0.87520154  0.14910390  1  1.303853  0  0.662309  0.948208  0  2.301286  0
Zn  Zn5  1  0.08988413  0.62479810  0.64910443  1  1.303856  0  0.662311  0.948215  0  2.301278  0
Zn  Zn6  1  0.91011523  0.62479733  0.85089530  1  1.30397  0  0.662341  0.948289  0  2.30115  0
Zn  Zn7  1  0.58988453  0.87520143  0.35089398  1  1.303831  0  0.662345  0.948281  0  2.301138  0
Zn  Zn8  1  0.60158257  0.21112141  0.72199752  1  1.333363  0  0.659201  0.887714  0  2.326696  0
Zn  Zn9  1  0.89841706  0.28887910  0.22199660  1  1.333306  0  0.65923  0.88773  0  2.326672  0
Zn  Zn10  1  0.10158226  0.28887847  0.27800297  1  1.333348  0  0.659219  0.887707  0  2.326675  0
Zn  Zn11  1  0.39841682  0.21112076  0.77800199  1  1.333481  0  0.659202  0.887677  0  2.326701  0
Zn  Zn12  1  0.39841845  0.78887954  0.27800256  1  1.333438  0  0.659221  0.887692  0  2.326687  0
Zn  Zn13  1  0.10158329  0.71111995  0.77800211  1  1.333443  0  0.659247  0.887779  0  2.326649  0
Zn  Zn14  1  0.89841741  0.71111996  0.72199803  1  1.333436  0  0.659235  0.887778  0  2.326623  0
Zn  Zn15  1  0.60158420  0.78887767  0.22199764  1  1.333385  0  0.659229  0.887738  0  2.326681  0
H  H16  1  0.65475892  0.10164900  0.59632956  1  0.136505  0  0.119686  0.088329  0  1.012949  0
H  H17  1  0.84523985  0.39835228  0.09632776  1  0.136479  0  0.119674  0.088361  0  1.012996  0
H  H18  1  0.15475610  0.39835087  0.40367265  1  0.136481  0  0.119677  0.08833  0  1.012999  0
H  H19  1  0.34524383  0.10164568  0.90367092  1  0.136423  0  0.11969  0.088383  0  1.012963  0
H  H20  1  0.34524210  0.89835385  0.40367280  1  0.136447  0  0.119655  0.088349  0  1.012972  0
H  H21  1  0.15475848  0.60164677  0.90367095  1  0.136461  0  0.119655  0.088307  0  1.013016  0
H  H22  1  0.84524088  0.60164819  0.59632925  1  0.136488  0  0.119666  0.088326  0  1.012954  0
H  H23  1  0.65476122  0.89835401  0.09632825  1  0.136459  0  0.119656  0.088324  0  1.013014  0
H  H24  1  0.68289479  0.58757578  0.64258472  1  0.093646  0  0.115433  0.118168  0  0.992014  0
H  H25  1  0.81710713  0.91242573  0.14258388  1  0.093652  0  0.115467  0.118197  0  0.991994  0
H  H26  1  0.18289349  0.91242563  0.35741716  1  0.093645  0  0.115431  0.118143  0  0.992013  0
H  H27  1  0.31710592  0.58757567  0.85741731  1  0.093615  0  0.11544  0.11819  0  0.99195  0
H  H28  1  0.31710355  0.41242454  0.35741764  1  0.09361  0  0.115434  0.118157  0  0.992  0
H  H29  1  0.18289321  0.08757586  0.85741894  1  0.093564  0  0.115422  0.118165  0  0.991971  0
H  H30  1  0.81710484  0.08757532  0.64258383  1  0.093648  0  0.115427  0.118145  0  0.992048  0
H  H31  1  0.68289510  0.41242402  0.14258095  1  0.093559  0  0.115453  0.118187  0  0.991955  0
H  H32  1  0.59327983  0.43263524  0.79328603  1  0.094045  0  0.116343  0.085069  0  0.972943  0
H  H33  1  0.90672019  0.06736520  0.29328431  1  0.094098  0  0.11634  0.085099  0  0.972972  0
H  H34  1  0.09328116  0.06736527  0.20671584  1  0.094125  0  0.11636  0.085142  0  0.972946  0
H  H35  1  0.40671753  0.43263656  0.70671563  1  0.094126  0  0.116363  0.085118  0  0.972958  0
H  H36  1  0.40671918  0.56736509  0.20671678  1  0.094139  0  0.116364  0.085128  0  0.972966  0
H  H37  1  0.09327948  0.93263829  0.70671714  1  0.094161  0  0.116385  0.085152  0  0.972948  0
H  H38  1  0.90672187  0.93263821  0.79328470  1  0.094225  0  0.116354  0.085104  0  0.972911  0
H  H39  1  0.59328282  0.56736250  0.29328263  1  0.093993  0  0.116412  0.085207  0  0.972895  0
H  H40  1  0.61608866  0.65394475  0.84929524  1  0.093184  0  0.119791  0.113005  0  0.951223  0
H  H41  1  0.88391379  0.84605527  0.34929295  1  0.093132  0  0.119787  0.113035  0  0.951174  0
H  H42  1  0.11608751  0.84605351  0.15070540  1  0.093208  0  0.119762  0.112952  0  0.95114  0
H  H43  1  0.38391271  0.65394613  0.65070630  1  0.093212  0  0.119786  0.112992  0  0.951179  0
H  H44  1  0.38391303  0.34605558  0.15070621  1  0.093173  0  0.119776  0.11298  0  0.951173  0
H  H45  1  0.11608656  0.15394505  0.65070532  1  0.093183  0  0.119769  0.112985  0  0.951204  0
H  H46  1  0.88391284  0.15394302  0.84929377  1  0.093146  0  0.119787  0.113055  0  0.951195  0
H  H47  1  0.61608562  0.34605546  0.34929378  1  0.093065  0  0.119753  0.112968  0  0.951205  0
H  H48  1  0.62811324  0.76486583  0.85227138  1  0.10854  0  0.113192  0.104434  0  0.980646  0
H  H49  1  0.87188786  0.73513482  0.35227008  1  0.108573  0  0.113218  0.104457  0  0.980657  0
H  H50  1  0.12811614  0.73513495  0.14772969  1  0.108622  0  0.113186  0.10437  0  0.980589  0
H  H51  1  0.37188544  0.76486405  0.64772873  1  0.108579  0  0.113229  0.10445  0  0.980618  0
H  H52  1  0.37188644  0.23513702  0.14772870  1  0.108601  0  0.113207  0.104399  0  0.980594  0
H  H53  1  0.12811450  0.26486424  0.64772864  1  0.108575  0  0.113214  0.104424  0  0.98064  0
H  H54  1  0.87188623  0.26486221  0.85227085  1  0.108611  0  0.113226  0.104459  0  0.98062  0
H  H55  1  0.62811424  0.23513690  0.35227090  1  0.108608  0  0.113199  0.1044  0  0.980585  0
H  H56  1  0.60430788  0.93205070  0.53881674  1  0.094018  0  0.102882  0.081117  0  1.022382  0
H  H57  1  0.89569041  0.56794840  0.03881595  1  0.094357  0  0.102872  0.081095  0  1.022395  0
H  H58  1  0.10430688  0.56794819  0.46118392  1  0.093996  0  0.102876  0.081084  0  1.022375  0
H  H59  1  0.39569078  0.93205110  0.96118282  1  0.093987  0  0.102868  0.081086  0  1.022426  0
H  H60  1  0.39569112  0.06794773  0.46118288  1  0.093972  0  0.102865  0.08108  0  1.022387  0
H  H61  1  0.10430994  0.43205002  0.96118368  1  0.094385  0  0.102886  0.081095  0  1.02244  0
H  H62  1  0.89568877  0.43205276  0.53881708  1  0.094308  0  0.102844  0.081056  0  1.022401  0
H  H63  1  0.60430889  0.06794606  0.03881681  1  0.093937  0  0.102861  0.08109  0  1.022367  0
H  H64  1  0.48556561  0.93005364  0.54005476  1  0.095218  0  0.104976  0.100919  0  0.987371  0
H  H65  1  0.01443370  0.56994612  0.04005557  1  0.095222  0  0.10499  0.100901  0  0.987387  0
H  H66  1  0.98556560  0.56994459  0.45994566  1  0.095192  0  0.104967  0.100894  0  0.98735  0
H  H67  1  0.51443373  0.93005531  0.95994389  1  0.09521  0  0.104994  0.100922  0  0.987345  0
H  H68  1  0.51443407  0.06994542  0.45994486  1  0.095187  0  0.104981  0.100892  0  0.987365  0
H  H69  1  0.98556597  0.43005610  0.95994406  1  0.095203  0  0.104976  0.100925  0  0.987337  0
H  H70  1  0.01443340  0.43005573  0.54005533  1  0.095224  0  0.104987  0.100911  0  0.987313  0
H  H71  1  0.48556594  0.06994438  0.04005574  1  0.095194  0  0.104967  0.100897  0  0.987298  0
H  H72  1  0.62949195  0.87492347  0.80349604  1  0.091431  0  0.1008  0.119746  0  1.02972  0
H  H73  1  0.87050867  0.62507723  0.30349526  1  0.09146  0  0.100828  0.119792  0  1.029739  0
H  H74  1  0.12949332  0.62507668  0.19650412  1  0.091432  0  0.100824  0.119785  0  1.029713  0
H  H75  1  0.37050672  0.87492733  0.69650310  1  0.091389  0  0.100803  0.119765  0  1.029727  0
H  H76  1  0.37050773  0.12507748  0.19650450  1  0.091452  0  0.100823  0.119804  0  1.029697  0
H  H77  1  0.12949168  0.37492499  0.69650255  1  0.091392  0  0.100809  0.119805  0  1.029709  0
H  H78  1  0.87050636  0.37492427  0.80349778  1  0.091378  0  0.100816  0.119792  0  1.029758  0
H  H79  1  0.62949295  0.12507489  0.30349653  1  0.091407  0  0.100805  0.119778  0  1.029713  0
H  H80  1  0.70960609  0.14302425  0.49352220  1  0.071261  0  0.106458  0.103536  0  1.01384  0
H  H81  1  0.79039315  0.35697597  0.99352179  1  0.071283  0  0.106443  0.103514  0  1.01389  0
H  H82  1  0.20960153  0.35697562  0.50647856  1  0.071109  0  0.106457  0.103551  0  1.013835  0
H  H83  1  0.29039795  0.14302516  0.00647791  1  0.071189  0  0.106456  0.103522  0  1.013853  0
H  H84  1  0.29039358  0.85697607  0.50647743  1  0.071303  0  0.106447  0.103536  0  1.013866  0
H  H85  1  0.20960586  0.64302372  0.00647693  1  0.071316  0  0.106423  0.103491  0  1.013886  0
H  H86  1  0.79039344  0.64302344  0.49352289  1  0.071249  0  0.106466  0.10353  0  1.013874  0
H  H87  1  0.70960643  0.85697642  0.99352126  1  0.071273  0  0.10644  0.103503  0  1.013857  0
H  H88  1  0.56945397  0.70673939  0.65331261  1  0.101357  0  0.112075  0.138956  0  0.98815  0
H  H89  1  0.93054522  0.79325895  0.15330935  1  0.101313  0  0.112122  0.138999  0  0.988186  0
H  H90  1  0.06945676  0.79325887  0.34669039  1  0.10138  0  0.112101  0.138966  0  0.988117  0
H  H91  1  0.43054404  0.70674118  0.84668799  1  0.101431  0  0.112108  0.138982  0  0.988126  0
H  H92  1  0.43054436  0.29325904  0.34668884  1  0.10142  0  0.112101  0.138958  0  0.988148  0
H  H93  1  0.06945446  0.20674264  0.84668846  1  0.101403  0  0.112109  0.139018  0  0.988112  0
H  H94  1  0.93054426  0.20674145  0.65331288  1  0.101458  0  0.112095  0.139015  0  0.988104  0
H  H95  1  0.56945497  0.29325598  0.15331118  1  0.101396  0  0.112118  0.139019  0  0.988104  0
H  H96  1  0.56939758  0.97805569  0.62809034  1  0.082077  0  0.101831  0.120613  0  1.059604  0
H  H97  1  0.93060104  0.52194267  0.12808952  1  0.082033  0  0.101842  0.120627  0  1.059583  0
H  H98  1  0.06939558  0.52194320  0.37191038  1  0.082028  0  0.101829  0.120603  0  1.059589  0
H  H99  1  0.43060176  0.97805620  0.87190873  1  0.082076  0  0.101817  0.120595  0  1.059664  0
H  H100  1  0.43060143  0.02194210  0.37190974  1  0.082033  0  0.101871  0.120636  0  1.059558  0
H  H101  1  0.06939998  0.47805765  0.87191011  1  0.08206  0  0.101865  0.120645  0  1.05957  0
H  H102  1  0.93060006  0.47805649  0.62809062  1  0.082094  0  0.101819  0.120597  0  1.05968  0
H  H103  1  0.56939993  0.02194160  0.12808998  1  0.082042  0  0.10185  0.120638  0  1.059579  0
H  H104  1  0.62862270  0.57466412  0.74893600  1  0.132747  0  0.109795  0.119193  0  1.045752  0
H  H105  1  0.87137678  0.92533727  0.24893459  1  0.132806  0  0.109821  0.119249  0  1.045672  0
H  H106  1  0.12862384  0.92533666  0.25106644  1  0.132817  0  0.109857  0.119241  0  1.045671  0
H  H107  1  0.37137599  0.57466413  0.75106559  1  0.132789  0  0.109825  0.119206  0  1.045737  0
H  H108  1  0.37137563  0.42533683  0.25106499  1  0.132789  0  0.109821  0.119203  0  1.045711  0
H  H109  1  0.12862020  0.07466432  0.75106686  1  0.13279  0  0.109811  0.119181  0  1.045746  0
H  H110  1  0.87137718  0.07466429  0.74893410  1  0.132789  0  0.109831  0.119238  0  1.045706  0
H  H111  1  0.62862301  0.42533619  0.24893268  1  0.132923  0  0.10985  0.119224  0  1.045694  0
H  H112  1  0.73490829  0.29582028  0.46733611  1  0.155177  0  0.114216  0.128089  0  1.015763  0
H  H113  1  0.76509240  0.20418186  0.96733538  1  0.155167  0  0.114232  0.128132  0  1.015682  0
H  H114  1  0.23490431  0.20418212  0.53266414  1  0.154974  0  0.114212  0.128122  0  1.015736  0
H  H115  1  0.26509574  0.29581800  0.03266254  1  0.155015  0  0.114221  0.128131  0  1.015714  0
H  H116  1  0.26509071  0.70418321  0.53266261  1  0.155216  0  0.114212  0.128138  0  1.015678  0
H  H117  1  0.23490929  0.79581719  0.03266197  1  0.155226  0  0.114226  0.128147  0  1.015699  0
H  H118  1  0.76509201  0.79581820  0.46733594  1  0.155182  0  0.114213  0.128128  0  1.015688  0
H  H119  1  0.73490931  0.70418358  0.96733572  1  0.155167  0  0.114196  0.128093  0  1.015753  0
H  H120  1  0.54475883  0.26809724  0.83320574  1  0.615987  0  0.305484  0.392333  0  0.900738  0
H  H121  1  0.95523969  0.23190252  0.33320474  1  0.615995  0  0.305501  0.392337  0  0.900733  0
H  H122  1  0.04475963  0.23190327  0.16679395  1  0.615985  0  0.305497  0.392349  0  0.900705  0
H  H123  1  0.45523989  0.26809734  0.66679511  1  0.616001  0  0.305505  0.39236  0  0.900712  0
H  H124  1  0.45524219  0.73190181  0.16679435  1  0.615978  0  0.30549  0.392368  0  0.900683  0
H  H125  1  0.04475864  0.76809781  0.66679488  1  0.615989  0  0.305506  0.392363  0  0.900714  0
H  H126  1  0.95524071  0.76809705  0.83320568  1  0.615994  0  0.305483  0.392345  0  0.900738  0
H  H127  1  0.54476113  0.73190235  0.33320543  1  0.615812  0  0.305492  0.392335  0  0.900715  0
H  H128  1  0.76966931  0.49731678  0.44542328  1  0.621753  0  0.354892  0.359739  0  0.858418  0
H  H129  1  0.73032878  0.00268539  0.94542318  1  0.621896  0  0.354917  0.359751  0  0.858368  0
H  H130  1  0.26966996  0.00268436  0.55457691  1  0.621754  0  0.354896  0.359763  0  0.858385  0
H  H131  1  0.23032866  0.49731385  0.05457662  1  0.621841  0  0.35492  0.359769  0  0.858343  0
H  H132  1  0.23032835  0.50268544  0.55457680  1  0.621893  0  0.354924  0.359806  0  0.858313  0
H  H133  1  0.26967023  0.99731367  0.05457736  1  0.621906  0  0.354917  0.359745  0  0.858404  0
H  H134  1  0.73032838  0.99731597  0.44542272  1  0.621872  0  0.354888  0.359704  0  0.8584  0
H  H135  1  0.76967101  0.50268584  0.94542255  1  0.621894  0  0.354902  0.359749  0  0.858381  0
C  C136  1  0.60770568  0.01953871  0.74357158  1  1.57478  0  0.216937  0.597648  0  4.152127  0
C  C137  1  0.89229319  0.48046178  0.24357102  1  1.574755  0  0.21682  0.597632  0  4.152107  0
C  C138  1  0.10770545  0.48046116  0.25642844  1  1.574776  0  0.216816  0.59746  0  4.152071  0
C  C139  1  0.39229238  0.01953745  0.75642758  1  1.5748  0  0.216865  0.597612  0  4.152135  0
C  C140  1  0.39229399  0.98046224  0.25642805  1  1.574797  0  0.216886  0.597647  0  4.152033  0
C  C141  1  0.10770715  0.51953665  0.75642770  1  1.574777  0  0.216886  0.597646  0  4.152075  0
C  C142  1  0.89229288  0.51953663  0.74357255  1  1.574777  0  0.216863  0.597652  0  4.152107  0
C  C143  1  0.60770729  0.98046287  0.24357204  1  1.574755  0  0.216918  0.597668  0  4.15209  0
C  C144  1  0.74346616  0.69760230  0.81564292  1  1.584945  0  0.209498  0.600257  0  4.176003  0
C  C145  1  0.75653441  0.80239839  0.31564224  1  1.584945  0  0.209478  0.600242  0  4.175957  0
C  C146  1  0.24346756  0.80239784  0.18435794  1  1.584976  0  0.209454  0.60022  0  4.175881  0
C  C147  1  0.25653387  0.69760239  0.68435723  1  1.584984  0  0.209526  0.600328  0  4.175892  0
C  C148  1  0.25653352  0.30239865  0.18435807  1  1.584998  0  0.209507  0.600281  0  4.175803  0
C  C149  1  0.24346661  0.19760194  0.68435738  1  1.584987  0  0.209494  0.600206  0  4.175965  0
C  C150  1  0.75653413  0.19759995  0.81564214  1  1.584971  0  0.209503  0.600321  0  4.175836  0
C  C151  1  0.74346648  0.30239920  0.31564149  1  1.584985  0  0.209447  0.600181  0  4.176022  0
C  C152  1  0.60027849  0.78178806  0.73262775  1  0.447859  0  0.082895  0.284339  0  4.076567  0
C  C153  1  0.89972241  0.71821209  0.23262641  1  0.446523  0  0.082862  0.284311  0  4.076464  0
C  C154  1  0.10027823  0.71821146  0.26737291  1  0.447883  0  0.082818  0.284218  0  4.076443  0
C  C155  1  0.39972220  0.78178931  0.76737189  1  0.446628  0  0.082843  0.284288  0  4.076499  0
C  C156  1  0.39972052  0.21821163  0.26737370  1  0.44788  0  0.082874  0.284362  0  4.076383  0
C  C157  1  0.10027995  0.28178950  0.76737276  1  0.447868  0  0.082855  0.284344  0  4.076473  0
C  C158  1  0.89972010  0.28178949  0.73262762  1  0.446617  0  0.082855  0.284347  0  4.076414  0
C  C159  1  0.60027814  0.21821165  0.23262773  1  0.446561  0  0.082877  0.284377  0  4.076435  0
C  C160  1  0.60443653  0.93238270  0.71712898  1  -0.02644  0  -0.024423  0.003028  0  4.02169  0
C  C161  1  0.89556174  0.56761746  0.21712865  1  -0.026476  0  -0.024401  0.003043  0  4.021819  0
C  C162  1  0.10443756  0.56761682  0.28287168  1  -0.026512  0  -0.024463  0.003007  0  4.021781  0
C  C163  1  0.39556012  0.93238204  0.78287058  1  -0.026516  0  -0.02442  0.00308  0  4.021715  0
C  C164  1  0.39556180  0.06761762  0.28287155  1  -0.026479  0  -0.02445  0.003029  0  4.02174  0
C  C165  1  0.10443659  0.43238159  0.78287053  1  -0.026488  0  -0.024424  0.00312  0  4.021664  0
C  C166  1  0.89556211  0.43238161  0.71713023  1  -0.026547  0  -0.024447  0.002968  0  4.021731  0
C  C167  1  0.60443754  0.06761828  0.21712905  1  -0.026499  0  -0.024405  0.003133  0  4.021735  0
C  C168  1  0.54832901  0.85882259  0.46735934  1  1.606456  0  0.189268  0.582013  0  4.215475  0
C  C169  1  0.95167164  0.64117350  0.96735967  1  1.606466  0  0.189331  0.582002  0  4.215352  0
C  C170  1  0.04832772  0.64117441  0.53264051  1  1.606433  0  0.18928  0.581931  0  4.215439  0
C  C171  1  0.45167095  0.85882536  0.03263945  1  1.606438  0  0.189356  0.582094  0  4.215489  0
C  C172  1  0.45167134  0.14117331  0.53263938  1  1.606426  0  0.189386  0.58207  0  4.215333  0
C  C173  1  0.04833072  0.35882745  0.03263996  1  1.606399  0  0.189323  0.581955  0  4.215342  0
C  C174  1  0.95166658  0.35882655  0.46736094  1  1.606374  0  0.189336  0.581957  0  4.215394  0
C  C175  1  0.54832805  0.14117180  0.96736109  1  1.606376  0  0.189384  0.582043  0  4.215248  0
C  C176  1  0.69544492  0.33615419  0.55863299  1  -0.011266  0  0.004114  -0.019547  0  3.907149  0
C  C177  1  0.80455400  0.16384650  0.05863231  1  -0.01129  0  0.004091  -0.019654  0  3.907276  0
C  C178  1  0.19544399  0.16384568  0.44136778  1  -0.011312  0  0.00408  -0.019724  0  3.907281  0
C  C179  1  0.30455446  0.33615399  0.94136599  1  -0.011259  0  0.004086  -0.019619  0  3.907329  0
C  C180  1  0.30455341  0.66384740  0.44136618  1  -0.011276  0  0.004079  -0.019697  0  3.907367  0
C  C181  1  0.19544769  0.83615255  0.94136595  1  -0.01125  0  0.004087  -0.019598  0  3.907266  0
C  C182  1  0.80455367  0.83615401  0.55863275  1  -0.011294  0  0.004115  -0.019574  0  3.907222  0
C  C183  1  0.69544790  0.66384696  0.05863272  1  -0.011317  0  0.004082  -0.01963  0  3.907404  0
C  C184  1  0.70229767  0.42931305  0.56473557  1  0.625245  0  0.127999  0.122316  0  4.014076  0
C  C185  1  0.79770325  0.07068701  0.06473495  1  0.625295  0  0.127997  0.122329  0  4.014166  0
C  C186  1  0.20229677  0.07068746  0.43526611  1  0.625546  0  0.128013  0.122431  0  4.014371  0
C  C187  1  0.29770372  0.42931286  0.93526565  1  0.625272  0  0.127993  0.122332  0  4.014307  0
C  C188  1  0.29770200  0.57068791  0.43526543  1  0.625574  0  0.128027  0.122432  0  4.014274  0
C  C189  1  0.20229777  0.92931268  0.93526559  1  0.625295  0  0.127962  0.122306  0  4.014292  0
C  C190  1  0.79770358  0.92931287  0.56473443  1  0.625563  0  0.128018  0.122361  0  4.014318  0
C  C191  1  0.70229932  0.57068873  0.06473353  1  0.625537  0  0.128028  0.122387  0  4.014462  0
C  C192  1  0.66738617  0.16767333  0.58496933  1  0.456441  0  0.061302  0.110549  0  3.905333  0
C  C193  1  0.83261333  0.33232797  0.08496850  1  0.456427  0  0.061351  0.110509  0  3.905452  0
C  C194  1  0.16738600  0.33232781  0.41503104  1  0.456412  0  0.061355  0.110563  0  3.905403  0
C  C195  1  0.33261457  0.16767063  0.91503021  1  0.456481  0  0.061266  0.110377  0  3.905494  0
C  C196  1  0.33261351  0.83232889  0.41503075  1  0.456419  0  0.061336  0.110498  0  3.905476  0
C  C197  1  0.16738635  0.66767172  0.91503022  1  0.456415  0  0.061304  0.110485  0  3.905362  0
C  C198  1  0.83261301  0.66767251  0.58496949  1  0.456434  0  0.06132  0.110517  0  3.90534  0
C  C199  1  0.66738779  0.83232843  0.08496896  1  0.456453  0  0.061349  0.110523  0  3.905293  0
C  C200  1  0.66740079  0.52550634  0.66144209  1  0.014933  0  -0.053395  -0.042114  0  3.892674  0
C  C201  1  0.83260106  0.97449515  0.16144073  1  0.014854  0  -0.053441  -0.042149  0  3.892635  0
C  C202  1  0.16740157  0.97449381  0.33855936  1  0.014879  0  -0.05339  -0.042041  0  3.892566  0
C  C203  1  0.33259925  0.52550689  0.83855952  1  0.014904  0  -0.053404  -0.042109  0  3.89253  0
C  C204  1  0.33259755  0.47449271  0.33855981  1  0.014905  0  -0.053407  -0.042123  0  3.892534  0
C  C205  1  0.16740265  0.02550707  0.83856026  1  0.014926  0  -0.053418  -0.042177  0  3.892541  0
C  C206  1  0.83259877  0.02550525  0.66144117  1  0.014915  0  -0.053413  -0.042096  0  3.892696  0
C  C207  1  0.66740109  0.47449343  0.16143829  1  0.014963  0  -0.053397  -0.042102  0  3.892562  0
C  C208  1  0.67588283  0.45114526  0.62791967  1  -0.000579  0  0.004095  -0.029572  0  3.961373  0
C  C209  1  0.82411784  0.04885599  0.12791810  1  -0.000727  0  0.004043  -0.029665  0  3.961549  0
C  C210  1  0.17588217  0.04885524  0.37208251  1  -0.000723  0  0.003995  -0.029833  0  3.961653  0
C  C211  1  0.32411789  0.45114514  0.87208199  1  -0.000744  0  0.00407  -0.029686  0  3.96153  0
C  C212  1  0.32411617  0.54885506  0.37208178  1  -0.000733  0  0.004056  -0.029663  0  3.961494  0
C  C213  1  0.17588385  0.95114497  0.87208198  1  -0.000546  0  0.004041  -0.029711  0  3.961579  0
C  C214  1  0.82411750  0.95114508  0.62791848  1  -0.000732  0  0.004063  -0.029678  0  3.961539  0
C  C215  1  0.67588515  0.54885518  0.12791719  1  -0.000603  0  0.004006  -0.029734  0  3.961634  0
C  C216  1  0.65368990  0.37475989  0.65759274  1  0.53501  0  0.120373  0.127987  0  4.047894  0
C  C217  1  0.84631066  0.12524070  0.15759154  1  0.535075  0  0.120443  0.128066  0  4.047902  0
C  C218  1  0.15368935  0.12523935  0.34240903  1  0.535108  0  0.120465  0.128159  0  4.047718  0
C  C219  1  0.34631082  0.37476106  0.84240851  1  0.535106  0  0.120436  0.128104  0  4.0477  0
C  C220  1  0.34630843  0.62523980  0.34240826  1  0.535121  0  0.120446  0.128069  0  4.047724  0
C  C221  1  0.15369103  0.87476026  0.84240854  1  0.534905  0  0.120468  0.128123  0  4.047806  0
C  C222  1  0.84631032  0.87475971  0.65759242  1  0.535095  0  0.120433  0.128123  0  4.047737  0
C  C223  1  0.65369288  0.62523989  0.15759067  1  0.534907  0  0.120503  0.12811  0  4.047781  0
C  C224  1  0.61693942  0.43840693  0.74642289  1  0.449523  0  0.048072  0.091927  0  3.963747  0
C  C225  1  0.88306145  0.06159419  0.24642121  1  0.449511  0  0.048022  0.091784  0  3.963847  0
C  C226  1  0.11693923  0.06159358  0.25357985  1  0.450053  0  0.048013  0.091711  0  3.963874  0
C  C227  1  0.38305995  0.43840693  0.75357968  1  0.450064  0  0.048055  0.091842  0  3.963773  0
C  C228  1  0.38306092  0.56159213  0.25357993  1  0.449523  0  0.048046  0.091798  0  3.96381  0
C  C229  1  0.11694024  0.93840803  0.75358024  1  0.450041  0  0.048013  0.091742  0  3.963737  0
C  C230  1  0.88306112  0.93840674  0.74642160  1  0.449385  0  0.048061  0.091907  0  3.96371  0
C  C231  1  0.61694107  0.56159213  0.24641858  1  0.450285  0  0.048012  0.091727  0  3.963613  0
C  C232  1  0.64228575  0.70872623  0.82415633  1  0.399871  0  -0.062633  -0.125672  0  3.917443  0
C  C233  1  0.85771545  0.79127382  0.32415503  1  0.399963  0  -0.062684  -0.125813  0  3.91754  0
C  C234  1  0.14228652  0.79127456  0.17584563  1  0.399863  0  -0.062596  -0.125532  0  3.917241  0
C  C235  1  0.35771427  0.70872569  0.67584518  1  0.399888  0  -0.062661  -0.125662  0  3.917432  0
C  C236  1  0.35771392  0.29127536  0.17584557  1  0.399514  0  -0.062632  -0.125606  0  3.917339  0
C  C237  1  0.14228489  0.20872524  0.67584506  1  0.399925  0  -0.062627  -0.125602  0  3.917379  0
C  C238  1  0.85771450  0.20872387  0.82415491  1  0.399942  0  -0.062664  -0.125789  0  3.917496  0
C  C239  1  0.64228473  0.29127590  0.32415445  1  0.400007  0  -0.062594  -0.125596  0  3.91733  0
C  C240  1  0.54564555  0.89050218  0.53253300  1  0.370448  0  -0.072322  -0.112884  0  3.903744  0
C  C241  1  0.95435344  0.60949629  0.03253299  1  0.370051  0  -0.072281  -0.112737  0  3.903735  0
C  C242  1  0.04564519  0.60949671  0.46746731  1  0.370438  0  -0.072272  -0.112685  0  3.903758  0
C  C243  1  0.45435379  0.89050321  0.96746658  1  0.370416  0  -0.072319  -0.112821  0  3.903806  0
C  C244  1  0.45435345  0.10949561  0.46746708  1  0.37042  0  -0.072262  -0.112685  0  3.903704  0
C  C245  1  0.04564623  0.39050340  0.96746709  1  0.370084  0  -0.072325  -0.112882  0  3.903851  0
C  C246  1  0.95435180  0.39050425  0.53253323  1  0.370097  0  -0.072249  -0.112662  0  3.903552  0
C  C247  1  0.54564656  0.10949521  0.03253350  1  0.370481  0  -0.072211  -0.112612  0  3.903479  0
C  C248  1  0.57096766  0.84011456  0.63280620  1  0.425501  0  0.077731  0.268967  0  4.094774  0
C  C249  1  0.92903362  0.65988380  0.13280620  1  0.425486  0  0.077763  0.26905  0  4.094765  0
C  C250  1  0.07096702  0.65988370  0.36719407  1  0.425484  0  0.077796  0.269165  0  4.0947  0
C  C251  1  0.42903303  0.84011507  0.86719433  1  0.425504  0  0.077731  0.268978  0  4.09465  0
C  C252  1  0.42903201  0.15988450  0.36719389  1  0.425475  0  0.077788  0.269168  0  4.094661  0
C  C253  1  0.07096672  0.34011653  0.86719434  1  0.425458  0  0.077707  0.268999  0  4.094688  0
C  C254  1  0.92903266  0.34011599  0.63280602  1  0.425477  0  0.077723  0.268977  0  4.094763  0
C  C255  1  0.57096732  0.15988272  0.13280621  1  0.425465  0  0.077803  0.269296  0  4.094528  0
C  C256  1  0.61511333  0.86288802  0.75580933  1  -0.000492  0  -0.114174  -0.250705  0  3.979026  0
C  C257  1  0.88488613  0.63711210  0.25580851  1  -0.000505  0  -0.114179  -0.250732  0  3.979095  0
C  C258  1  0.11511518  0.63711150  0.24419131  1  -0.000482  0  -0.114169  -0.250684  0  3.978957  0
C  C259  1  0.38488668  0.86288867  0.74418982  1  -0.000512  0  -0.114134  -0.250735  0  3.979027  0
C  C260  1  0.38488635  0.13711167  0.24419121  1  -0.000515  0  -0.114188  -0.250772  0  3.979  0
C  C261  1  0.11511422  0.36288886  0.74419020  1  -0.000518  0  -0.114125  -0.250779  0  3.979074  0
C  C262  1  0.88488584  0.36288819  0.75581059  1  -0.000439  0  -0.11412  -0.250704  0  3.979019  0
C  C263  1  0.61511232  0.13711102  0.25580981  1  -0.000516  0  -0.114119  -0.25075  0  3.978994  0
C  C264  1  0.69706278  0.19206124  0.52720671  1  0.003805  0  -0.074521  -0.118819  0  3.943394  0
C  C265  1  0.80293492  0.30794013  0.02720686  1  0.003741  0  -0.074523  -0.118877  0  3.943452  0
C  C266  1  0.19706171  0.30793990  0.47279315  1  0.003932  0  -0.074505  -0.118879  0  3.943383  0
C  C267  1  0.30293594  0.19205910  0.97279099  1  0.00382  0  -0.074532  -0.118821  0  3.943505  0
C  C268  1  0.30293555  0.80794035  0.47279200  1  0.003731  0  -0.074519  -0.118875  0  3.943551  0
C  C269  1  0.19706475  0.69205956  0.97279140  1  0.003737  0  -0.074463  -0.118769  0  3.943453  0
C  C270  1  0.80293460  0.69206042  0.52720739  1  0.003807  0  -0.074501  -0.118795  0  3.94341  0
C  C271  1  0.69706508  0.80793995  0.02720682  1  0.003742  0  -0.074499  -0.118814  0  3.943385  0
C  C272  1  0.58038947  0.77012584  0.67121064  1  0.003651  0  -0.110661  -0.300997  0  3.946653  0
C  C273  1  0.91961100  0.72987374  0.17120926  1  0.003671  0  -0.110678  -0.301012  0  3.946627  0
C  C274  1  0.08038964  0.72987305  0.32879052  1  0.003641  0  -0.11063  -0.300966  0  3.946521  0
C  C275  1  0.41960921  0.77012702  0.82878992  1  0.0035  0  -0.110654  -0.300963  0  3.946563  0
C  C276  1  0.41960685  0.22987322  0.32879081  1  0.003573  0  -0.110664  -0.30103  0  3.946525  0
C  C277  1  0.08039137  0.27012848  0.82879037  1  0.003669  0  -0.110657  -0.30105  0  3.946586  0
C  C278  1  0.91960667  0.27012790  0.67120957  1  0.003488  0  -0.110676  -0.301085  0  3.946587  0
C  C279  1  0.58039181  0.22987140  0.17120970  1  0.003679  0  -0.110712  -0.301159  0  3.946585  0
C  C280  1  0.66656310  0.30501982  0.61552147  1  0.578437  0  0.128926  0.141208  0  4.025729  0
C  C281  1  0.83343762  0.19498082  0.11552026  1  0.578452  0  0.128934  0.141247  0  4.025795  0
C  C282  1  0.16656440  0.19498069  0.38447891  1  0.578442  0  0.128942  0.141168  0  4.025778  0
C  C283  1  0.33343763  0.30501905  0.88447799  1  0.578443  0  0.128956  0.141204  0  4.025695  0
C  C284  1  0.33343456  0.69498177  0.38447816  1  0.578435  0  0.128896  0.14117  0  4.025762  0
C  C285  1  0.16656542  0.80501887  0.88447800  1  0.578424  0  0.128863  0.141069  0  4.025822  0
C  C286  1  0.83343527  0.80501963  0.61552163  1  0.578453  0  0.128874  0.141139  0  4.025763  0
C  C287  1  0.66656742  0.69498128  0.11552118  1  0.578436  0  0.128901  0.141168  0  4.025716  0
C  C288  1  0.58208051  0.92218933  0.65559168  1  0.014501  0  -0.120971  -0.270506  0  3.986057  0
C  C289  1  0.91792135  0.57780900  0.15559130  1  0.014521  0  -0.120996  -0.270596  0  3.986106  0
C  C290  1  0.08207996  0.57780892  0.34440902  1  0.01455  0  -0.120928  -0.270494  0  3.986066  0
C  C291  1  0.41792084  0.92219050  0.84440789  1  0.014557  0  -0.120894  -0.270406  0  3.985918  0
C  C292  1  0.41792118  0.07780909  0.34440886  1  0.014535  0  -0.12095  -0.270542  0  3.986029  0
C  C293  1  0.08207630  0.42219069  0.84440788  1  0.014527  0  -0.120952  -0.270567  0  3.98599  0
C  C294  1  0.91792105  0.42219077  0.65559243  1  0.0145  0  -0.120928  -0.270455  0  3.986033  0
C  C295  1  0.58207816  0.07780856  0.15559174  1  0.014509  0  -0.120998  -0.270698  0  3.986034  0
C  C296  1  0.63749843  0.51776036  0.72176157  1  -0.040843  0  -0.080746  -0.123149  0  3.934199  0
C  C297  1  0.86250116  0.98224169  0.22176060  1  -0.04072  0  -0.080715  -0.123126  0  3.934222  0
C  C298  1  0.13750080  0.98224105  0.27823994  1  -0.040815  0  -0.080784  -0.123133  0  3.934248  0
C  C299  1  0.36249959  0.51776034  0.77824005  1  -0.040825  0  -0.080777  -0.123159  0  3.934138  0
C  C300  1  0.36249990  0.48223996  0.27823988  1  -0.040814  0  -0.080753  -0.123072  0  3.934082  0
C  C301  1  0.13750120  0.01776053  0.77824039  1  -0.040812  0  -0.08073  -0.122992  0  3.934019  0
C  C302  1  0.86249955  0.01775990  0.72176060  1  -0.040818  0  -0.080751  -0.123176  0  3.934138  0
C  C303  1  0.63750008  0.48223935  0.22175821  1  -0.040914  0  -0.080791  -0.123137  0  3.934012  0
C  C304  1  0.71172369  0.27731158  0.51249286  1  0.01409  0  -0.04429  -0.019581  0  3.839689  0
C  C305  1  0.78827609  0.22268917  0.01249217  1  0.014077  0  -0.044239  -0.019465  0  3.839557  0
C  C306  1  0.21172123  0.22268892  0.48750698  1  0.014314  0  -0.044286  -0.019499  0  3.839604  0
C  C307  1  0.28827704  0.27731007  0.98750570  1  0.014353  0  -0.044253  -0.019558  0  3.83966  0
C  C308  1  0.28827531  0.72269064  0.48750631  1  0.01409  0  -0.044232  -0.019505  0  3.83968  0
C  C309  1  0.21172560  0.77730926  0.98750609  1  0.014087  0  -0.044266  -0.019583  0  3.839692  0
C  C310  1  0.78827509  0.77731140  0.51249311  1  0.014089  0  -0.044292  -0.019596  0  3.839633  0
C  C311  1  0.71172599  0.72268962  0.01249256  1  0.014076  0  -0.044255  -0.019529  0  3.839704  0
N  N312  1  0.65246385  0.22437466  0.62978914  1  -1.261619  0  -0.304979  -0.241624  0  3.479044  0
N  N313  1  0.84753748  0.27562659  0.12978832  1  -1.261555  0  -0.30503  -0.24158  0  3.479072  0
N  N314  1  0.15246251  0.27562585  0.37021171  1  -1.261605  0  -0.305037  -0.241586  0  3.479129  0
N  N315  1  0.34753823  0.22437327  0.87021036  1  -1.261777  0  -0.304976  -0.241462  0  3.478944  0
N  N316  1  0.34753650  0.77562693  0.37021094  1  -1.261705  0  -0.304992  -0.241516  0  3.479003  0
N  N317  1  0.15246488  0.72437373  0.87021040  1  -1.261712  0  -0.304978  -0.241472  0  3.478882  0
N  N318  1  0.84753582  0.72437384  0.62978882  1  -1.261681  0  -0.305002  -0.241589  0  3.478947  0
N  N319  1  0.65246615  0.77562642  0.12978881  1  -1.261601  0  -0.305019  -0.241543  0  3.478891  0
N  N320  1  0.72624748  0.48660019  0.52573285  1  -0.553403  0  -0.200582  -0.113508  0  3.138148  0
N  N321  1  0.77375291  0.01340055  0.02573277  1  -0.55339  0  -0.20053  -0.113419  0  3.138101  0
N  N322  1  0.22624710  0.01340095  0.47426832  1  -0.553684  0  -0.200514  -0.113387  0  3.138262  0
N  N323  1  0.27375256  0.48659995  0.97426741  1  -0.553432  0  -0.200549  -0.113447  0  3.138219  0
N  N324  1  0.27375152  0.51340077  0.47426814  1  -0.55365  0  -0.200573  -0.1135  0  3.138255  0
N  N325  1  0.22624810  0.98659978  0.97426777  1  -0.553436  0  -0.200506  -0.113378  0  3.138254  0
N  N326  1  0.77375324  0.98660001  0.52573267  1  -0.553679  0  -0.200531  -0.113435  0  3.138236  0
N  N327  1  0.72624846  0.51340163  0.02573176  1  -0.553642  0  -0.200534  -0.113403  0  3.138211  0
N  N328  1  0.62429613  0.36589361  0.71450397  1  -1.21442  0  -0.302394  -0.270432  0  3.410786  0
N  N329  1  0.87570353  0.13410754  0.21450226  1  -1.214437  0  -0.302456  -0.270457  0  3.410664  0
N  N330  1  0.12429581  0.13410753  0.28549785  1  -1.214451  0  -0.302436  -0.270405  0  3.410616  0
N  N331  1  0.37570392  0.36589295  0.78549728  1  -1.214454  0  -0.302465  -0.270474  0  3.410578  0
N  N332  1  0.37570354  0.63410671  0.28549748  1  -1.21442  0  -0.302462  -0.270464  0  3.410594  0
N  N333  1  0.12429682  0.86589341  0.78549736  1  -1.214415  0  -0.302441  -0.270449  0  3.410578  0
N  N334  1  0.87570387  0.86589279  0.71450360  1  -1.214434  0  -0.302441  -0.270525  0  3.410618  0
N  N335  1  0.62429844  0.63410737  0.21450189  1  -1.214399  0  -0.302498  -0.270473  0  3.410618  0
O  O336  1  0.62277224  0.02549569  0.80086703  1  -1.172862  0  -0.326827  -0.561218  0  2.331975  0
O  O337  1  0.87722708  0.47450410  0.30086650  1  -1.172841  0  -0.326796  -0.56122  0  2.331941  0
O  O338  1  0.12277156  0.47450418  0.19913297  1  -1.172849  0  -0.326795  -0.561146  0  2.332004  0
O  O339  1  0.37722783  0.02549386  0.69913213  1  -1.172901  0  -0.32683  -0.561263  0  2.331871  0
O  O340  1  0.37722810  0.97450590  0.19913214  1  -1.172886  0  -0.32681  -0.561223  0  2.331826  0
O  O341  1  0.12277192  0.52549432  0.69913268  1  -1.172897  0  -0.326823  -0.561258  0  2.33194  0
O  O342  1  0.87722744  0.52549234  0.80086802  1  -1.17294  0  -0.326807  -0.561216  0  2.331777  0
O  O343  1  0.62277117  0.97450646  0.30086749  1  -1.172897  0  -0.326845  -0.561273  0  2.331964  0
O  O344  1  0.59663503  0.70986490  0.76758071  1  -1.086509  0  -0.181421  -0.191725  0  2.631528  0
O  O345  1  0.90336572  0.79013520  0.26757932  1  -1.086838  0  -0.181412  -0.191708  0  2.631506  0
O  O346  1  0.09663424  0.79013525  0.23242042  1  -1.086533  0  -0.181426  -0.191759  0  2.631563  0
O  O347  1  0.40336566  0.70986620  0.73241943  1  -1.086849  0  -0.181408  -0.191743  0  2.631556  0
O  O348  1  0.40336733  0.29013479  0.23242028  1  -1.086436  0  -0.181412  -0.191768  0  2.631501  0
O  O349  1  0.09663328  0.20986638  0.73241985  1  -1.086538  0  -0.181409  -0.191744  0  2.631519  0
O  O350  1  0.90336678  0.20986634  0.76758012  1  -1.086845  0  -0.181416  -0.191716  0  2.631519  0
O  O351  1  0.59663334  0.29013476  0.26757929  1  -1.086596  0  -0.181385  -0.191686  0  2.631485  0
O  O352  1  0.59222589  0.08156578  0.70815380  1  -1.196238  0  -0.312412  -0.553493  0  2.364583  0
O  O353  1  0.90777446  0.41843475  0.20815324  1  -1.196248  0  -0.31236  -0.553495  0  2.36452  0
O  O354  1  0.09222485  0.41843410  0.29184671  1  -1.196584  0  -0.312346  -0.553411  0  2.364391  0
O  O355  1  0.40777552  0.08156511  0.79184533  1  -1.196544  0  -0.312405  -0.553521  0  2.364619  0
O  O356  1  0.40777446  0.91843518  0.29184583  1  -1.196563  0  -0.312422  -0.553526  0  2.364601  0
O  O357  1  0.09222588  0.58156494  0.79184593  1  -1.19654  0  -0.312418  -0.553542  0  2.364572  0
O  O358  1  0.90777281  0.58156496  0.70815474  1  -1.196183  0  -0.312413  -0.553547  0  2.364628  0
O  O359  1  0.59222684  0.91843458  0.20815384  1  -1.196177  0  -0.312428  -0.553535  0  2.364528  0
O  O360  1  0.78681853  0.67843255  0.86370295  1  -1.180488  0  -0.322698  -0.560525  0  2.315589  0
O  O361  1  0.71318320  0.82156745  0.36370279  1  -1.180451  0  -0.322684  -0.560498  0  2.315519  0
O  O362  1  0.28681878  0.82156632  0.13629693  1  -1.180468  0  -0.322692  -0.56053  0  2.315611  0
O  O363  1  0.21318217  0.67843333  0.63629676  1  -1.180501  0  -0.322725  -0.560557  0  2.315522  0
O  O364  1  0.21318316  0.32156903  0.13629714  1  -1.180475  0  -0.322706  -0.560534  0  2.315505  0
O  O365  1  0.28681782  0.17843351  0.63629683  1  -1.180487  0  -0.322712  -0.560497  0  2.315591  0
O  O366  1  0.71318358  0.17843147  0.86370315  1  -1.180466  0  -0.322696  -0.56052  0  2.315473  0
O  O367  1  0.78681751  0.32156826  0.36370196  1  -1.180453  0  -0.322692  -0.56051  0  2.315556  0
O  O368  1  0.55197918  0.92205535  0.42875229  1  -1.174758  0  -0.351698  -0.602575  0  2.293647  0
O  O369  1  0.94801960  0.57794078  0.92875311  1  -1.17492  0  -0.351733  -0.60263  0  2.293768  0
O  O370  1  0.05197909  0.57794164  0.57124710  1  -1.174878  0  -0.351694  -0.602559  0  2.293737  0
O  O371  1  0.44802144  0.92205745  0.07124647  1  -1.174857  0  -0.351753  -0.602676  0  2.293849  0
O  O372  1  0.44801982  0.07794181  0.57124643  1  -1.174876  0  -0.351738  -0.60264  0  2.293802  0
O  O373  1  0.05198142  0.42206081  0.07124651  1  -1.174951  0  -0.351755  -0.60263  0  2.293712  0
O  O374  1  0.94801790  0.42205995  0.42875435  1  -1.174902  0  -0.351771  -0.602681  0  2.293811  0
O  O375  1  0.55197958  0.07793971  0.92875452  1  -1.174937  0  -0.351767  -0.60268  0  2.293844  0
O  O376  1  0.77367486  0.70660205  0.76227697  1  -1.183805  0  -0.312427  -0.549718  0  2.396619  0
O  O377  1  0.72632592  0.79339933  0.26227635  1  -1.183834  0  -0.312416  -0.549676  0  2.396612  0
O  O378  1  0.27367740  0.79339746  0.23772384  1  -1.183854  0  -0.312404  -0.549665  0  2.396504  0
O  O379  1  0.22632315  0.70660208  0.73772226  1  -1.18383  0  -0.312444  -0.549748  0  2.396596  0
O  O380  1  0.22632347  0.29339827  0.23772357  1  -1.183868  0  -0.312451  -0.549729  0  2.396537  0
O  O381  1  0.27367577  0.20660226  0.73772282  1  -1.183848  0  -0.312416  -0.549704  0  2.396607  0
O  O382  1  0.72632429  0.20660160  0.76227670  1  -1.183851  0  -0.312409  -0.549727  0  2.396535  0
O  O383  1  0.77367585  0.29339887  0.26227600  1  -1.183863  0  -0.312431  -0.549692  0  2.396644  0
O  O384  1  0.53236949  0.21991424  0.80692595  1  -1.230581  0  -0.561007  -0.844234  0  2.337369  0
O  O385  1  0.96763115  0.28008555  0.30692582  1  -1.230515  0  -0.561032  -0.844268  0  2.337397  0
O  O386  1  0.03236817  0.28008565  0.19307421  1  -1.231468  0  -0.561033  -0.844265  0  2.337363  0
O  O387  1  0.46763192  0.21991493  0.69307538  1  -1.231451  0  -0.561035  -0.844262  0  2.337383  0
O  O388  1  0.46763422  0.78008482  0.19307367  1  -1.230553  0  -0.56103  -0.844301  0  2.337361  0
O  O389  1  0.03236919  0.71991477  0.69307472  1  -1.230522  0  -0.561049  -0.844298  0  2.337381  0
O  O390  1  0.96763150  0.71991468  0.80692542  1  -1.23159  0  -0.56102  -0.844284  0  2.337405  0
O  O391  1  0.53236977  0.78008412  0.30692516  1  -1.231313  0  -0.561018  -0.844253  0  2.337376  0
O  O392  1  0.54899862  0.82129343  0.57393321  1  -1.094072  0  -0.185471  -0.186866  0  2.571624  0
O  O393  1  0.95099953  0.67870563  0.07393316  1  -1.094026  0  -0.185473  -0.186905  0  2.571586  0
O  O394  1  0.04899842  0.67870420  0.42606664  1  -1.094025  0  -0.185516  -0.187025  0  2.571705  0
O  O395  1  0.45100139  0.82129324  0.92606733  1  -1.094065  0  -0.185493  -0.186933  0  2.571645  0
O  O396  1  0.45100038  0.17870500  0.42606688  1  -1.094022  0  -0.185531  -0.187017  0  2.571642  0
O  O397  1  0.04900014  0.32129343  0.92606738  1  -1.094055  0  -0.185471  -0.186842  0  2.571558  0
O  O398  1  0.95099991  0.32129423  0.57393299  1  -1.094034  0  -0.185482  -0.186921  0  2.571558  0
O  O399  1  0.54899895  0.17870519  0.07393367  1  -1.094015  0  -0.185589  -0.187137  0  2.57149  0
O  O400  1  0.54926558  0.78288068  0.45344411  1  -1.170002  0  -0.332713  -0.541454  0  2.091393  0
O  O401  1  0.95073714  0.71711606  0.95344212  1  -1.169862  0  -0.332756  -0.541439  0  2.091128  0
O  O402  1  0.04926289  0.71711568  0.54655710  1  -1.169879  0  -0.332715  -0.541398  0  2.091243  0
O  O403  1  0.45073572  0.78288281  0.04655564  1  -1.169882  0  -0.332723  -0.541423  0  2.091275  0
O  O404  1  0.45073678  0.21711711  0.54655506  1  -1.16984  0  -0.332801  -0.541499  0  2.091076  0
O  O405  1  0.04926657  0.28288490  0.04655659  1  -1.169806  0  -0.332725  -0.541368  0  2.091082  0
O  O406  1  0.95073343  0.28288464  0.45344480  1  -1.169807  0  -0.332731  -0.541379  0  2.09115  0
O  O407  1  0.54926395  0.21711499  0.95344354  1  -1.16978  0  -0.332763  -0.541451  0  2.091021  0
O  O408  1  0.74449879  0.45088156  0.46927192  1  -0.730084  0  -0.237862  -0.308569  0  2.293177  0
O  O409  1  0.75550122  0.04911931  0.96927174  1  -0.730242  0  -0.23792  -0.308643  0  2.293151  0
O  O410  1  0.24449886  0.04911957  0.53072923  1  -0.730097  0  -0.237866  -0.308639  0  2.293176  0
O  O411  1  0.25550119  0.45087992  0.03072801  1  -0.73016  0  -0.237887  -0.308611  0  2.293122  0
O  O412  1  0.25550021  0.54912003  0.53072862  1  -0.730243  0  -0.237875  -0.308642  0  2.293147  0
O  O413  1  0.24449980  0.95087975  0.03072788  1  -0.730232  0  -0.237859  -0.308573  0  2.293235  0
O  O414  1  0.75549947  0.95088138  0.46927177  1  -0.730209  0  -0.237872  -0.308569  0  2.293177  0
O  O415  1  0.74449982  0.54912103  0.96927070  1  -0.73028  0  -0.237889  -0.308648  0  2.293176  0
