# generated using pymatgen
data_MnH30C26(N2O)4
_symmetry_space_group_name_H-M   'P 1'
_cell_length_a   19.97913925
_cell_length_b   19.97912661
_cell_length_c   20.23956961
_cell_angle_alpha   60.42449162
_cell_angle_beta   60.42447518
_cell_angle_gamma   59.99796458
_symmetry_Int_Tables_number   1
_chemical_formula_structural   MnH30C26(N2O)4
_chemical_formula_sum   'Mn6 H180 C156 N48 O24'
_cell_volume   5748.96479340
_cell_formula_units_Z   6
loop_
 _symmetry_equiv_pos_site_id
 _symmetry_equiv_pos_as_xyz
  1  'x, y, z'
loop_
 _atom_site_type_symbol
 _atom_site_label
 _atom_site_symmetry_multiplicity
 _atom_site_fract_x
 _atom_site_fract_y
 _atom_site_fract_z
 _atom_site_occupancy
 _atom_site_pbe_bader_charge
 _atom_site_pbe_bader_spin_density
 _atom_site_pbe_cm5_charge
 _atom_site_pbe_ddec_charge
 _atom_site_pbe_ddec_spin_density
 _atom_site_pbe_ddec_sum_bond_order
 _atom_site_pbe_magmom
Mn  Mn0  1  0.75001041  0.27122546  0.74993820  1  1.477248  4.511664  0.615256  0.757203  4.652085  2.569791  4.44
Mn  Mn1  1  0.27125020  0.22875284  0.75000049  1  1.477166  4.512044  0.614827  0.757342  4.653205  2.568849  4.44
Mn  Mn2  1  0.22876839  0.74999301  0.75005807  1  1.477102  4.511685  0.615235  0.757179  4.65214  2.569864  4.44
Mn  Mn3  1  0.25000266  0.72876247  0.25006168  1  1.47691  4.511725  0.615246  0.757158  4.65211  2.569852  4.44
Mn  Mn4  1  0.72873719  0.77126336  0.25000504  1  1.47701  4.5121  0.614843  0.757352  4.653371  2.568807  4.44
Mn  Mn5  1  0.77122267  0.25001047  0.24994492  1  1.477242  4.511664  0.615227  0.75716  4.652102  2.569872  4.44
H  H6  1  0.84866985  0.09376944  0.76734162  1  0.503252  0.000448  0.341399  0.279928  0.000122  0.932507  0.0
H  H7  1  0.09374766  0.29013260  0.76740458  1  0.507191  0.000453  0.341402  0.279746  0.000119  0.93256  0.0
H  H8  1  0.29013853  0.84869154  0.76750326  1  0.502587  0.000452  0.341418  0.279895  0.000121  0.93302  0.0
H  H9  1  0.20986707  0.40625306  0.73259526  1  0.507182  0.000453  0.341453  0.279822  0.000119  0.932538  0.0
H  H10  1  0.40622897  0.65133132  0.73265938  1  0.50325  0.000448  0.341391  0.279922  0.000122  0.932548  0.0
H  H11  1  0.65130876  0.20986045  0.73249699  1  0.50259  0.000452  0.341427  0.279908  0.000121  0.933036  0.0
H  H12  1  0.15133161  0.90622820  0.23265818  1  0.50325  0.000448  0.341398  0.279948  0.000122  0.932556  0.0
H  H13  1  0.90625136  0.70986817  0.23259538  1  0.507165  0.000453  0.3414  0.279747  0.000119  0.932556  0.0
H  H14  1  0.70986110  0.15130961  0.23249573  1  0.502608  0.000452  0.341409  0.279886  0.000121  0.933021  0.0
H  H15  1  0.79013257  0.59374810  0.26740125  1  0.507103  0.000453  0.341478  0.279878  0.000118  0.932447  0.0
H  H16  1  0.59376821  0.34866892  0.26734271  1  0.503282  0.000448  0.341404  0.279948  0.000122  0.93251  0.0
H  H17  1  0.34869209  0.79013970  0.26750288  1  0.50264  0.000452  0.341432  0.279912  0.000121  0.932986  0.0
H  H18  1  0.63974023  0.40305522  0.82442614  1  0.561302  0.000398  0.308485  0.267449  0.000673  1.02124  0.0
H  H19  1  0.40294604  0.13271538  0.82460511  1  0.544705  0.000417  0.308229  0.266701  0.000677  1.023802  0.0
H  H20  1  0.13276572  0.63971948  0.82454960  1  0.563616  0.000401  0.308325  0.267705  0.000673  1.021332  0.0
H  H21  1  0.36728433  0.09705202  0.67539636  1  0.544903  0.000417  0.30826  0.26674  0.000677  1.023758  0.0
H  H22  1  0.09694468  0.86026034  0.67557310  1  0.561431  0.000397  0.308536  0.26751  0.000673  1.021202  0.0
H  H23  1  0.86028106  0.36723614  0.67544764  1  0.563663  0.000401  0.308271  0.267567  0.000673  1.021476  0.0
H  H24  1  0.36026002  0.59694342  0.17557228  1  0.561316  0.000397  0.308544  0.267495  0.000673  1.021242  0.0
H  H25  1  0.59705359  0.86728519  0.17539366  1  0.544878  0.000418  0.308249  0.266683  0.000678  1.02389  0.0
H  H26  1  0.86723635  0.36027910  0.17545044  1  0.563623  0.000401  0.308318  0.267688  0.000673  1.021368  0.0
H  H27  1  0.63271468  0.90294645  0.32460620  1  0.544915  0.000417  0.308258  0.266733  0.000678  1.023827  0.0
H  H28  1  0.90305678  0.13974018  0.32442481  1  0.561302  0.000398  0.308501  0.267457  0.000673  1.021251  0.0
H  H29  1  0.13971919  0.63276652  0.32454982  1  0.563616  0.0004  0.308324  0.26769  0.000673  1.021384  0.0
H  H30  1  0.62259747  0.22551740  0.95246750  1  0.079516  0.000363  0.097704  0.1384  3.4e-05  1.017315  0.0
H  H31  1  0.22543493  0.19931752  0.95255957  1  0.043806  0.000369  0.097709  0.138173  3.2e-05  1.017774  0.0
H  H32  1  0.19929211  0.62270688  0.95265638  1  0.039882  0.000371  0.097686  0.13829  3.3e-05  1.0178  0.0
H  H33  1  0.30068170  0.27456511  0.54744076  1  0.043705  0.000369  0.097699  0.13816  3.2e-05  1.017748  0.0
H  H34  1  0.27448239  0.87740311  0.54753174  1  0.079495  0.000363  0.097695  0.138405  3.5e-05  1.017324  0.0
H  H35  1  0.87729384  0.30070772  0.54734321  1  0.039886  0.000372  0.097686  0.138286  3.3e-05  1.017822  0.0
H  H36  1  0.37740216  0.77448374  0.04753100  1  0.079517  0.000363  0.097695  0.138386  3.4e-05  1.017357  0.0
H  H37  1  0.77456348  0.80068346  0.04744009  1  0.044057  0.000369  0.097688  0.138149  3.2e-05  1.017771  0.0
H  H38  1  0.80070813  0.37729233  0.04734275  1  0.039908  0.000371  0.097655  0.138246  3.3e-05  1.017824  0.0
H  H39  1  0.69931671  0.72543531  0.45255868  1  0.043693  0.000369  0.097686  0.138134  3.2e-05  1.017765  0.0
H  H40  1  0.72551785  0.12259782  0.45246706  1  0.079505  0.000364  0.097697  0.138373  3.5e-05  1.017329  0.0
H  H41  1  0.12270701  0.69929128  0.45265573  1  0.039851  0.000371  0.097663  0.13825  3.3e-05  1.017845  0.0
H  H42  1  0.58909780  0.13957567  0.01788776  1  0.043246  6.2e-05  0.091475  0.126032  4.7e-05  1.014541  0.0
H  H43  1  0.13951941  0.25332828  0.01798084  1  0.042093  6.2e-05  0.091576  0.126058  4.7e-05  1.015308  0.0
H  H44  1  0.25332180  0.58916398  0.01808136  1  0.023881  6.4e-05  0.09135  0.125891  4.7e-05  1.015125  0.0
H  H45  1  0.24667041  0.36048214  0.48201950  1  0.042127  6.2e-05  0.091573  0.126069  4.7e-05  1.015304  0.0
H  H46  1  0.36042348  0.91090192  0.48211164  1  0.043231  6.2e-05  0.091493  0.126074  4.7e-05  1.014581  0.0
H  H47  1  0.91083697  0.24667742  0.48191884  1  0.023882  6.4e-05  0.091363  0.125929  4.7e-05  1.015088  0.0
H  H48  1  0.41090061  0.86042474  0.98211168  1  0.043239  6.2e-05  0.091482  0.126053  4.7e-05  1.014566  0.0
H  H49  1  0.86048083  0.74667208  0.98201823  1  0.042104  6.2e-05  0.091556  0.126011  4.7e-05  1.015324  0.0
H  H50  1  0.74667844  0.41083811  0.98191737  1  0.023834  6.4e-05  0.091361  0.125955  4.7e-05  1.015007  0.0
H  H51  1  0.75333044  0.63951629  0.51797971  1  0.042141  6.2e-05  0.091578  0.126086  4.7e-05  1.015283  0.0
H  H52  1  0.63957798  0.08909744  0.51788782  1  0.043299  6.2e-05  0.091498  0.126068  4.7e-05  1.014549  0.0
H  H53  1  0.08916510  0.75332116  0.51808070  1  0.023915  6.4e-05  0.091371  0.125914  4.7e-05  1.015084  0.0
H  H54  1  0.56857570  0.20085382  0.92486250  1  0.066213  0.00084  0.096016  0.141484  0.000317  0.990739  0.0
H  H55  1  0.20080034  0.30559679  0.92495266  1  0.053835  0.000839  0.096302  0.141678  0.000315  0.992101  0.0
H  H56  1  0.30557371  0.56861306  0.92507428  1  0.076846  0.000833  0.096229  0.141501  0.000315  0.991134  0.0
H  H57  1  0.19440249  0.29919961  0.57504674  1  0.053809  0.000839  0.096319  0.141697  0.000315  0.992028  0.0
H  H58  1  0.29914582  0.93142384  0.57513683  1  0.066235  0.00084  0.096018  0.141498  0.000317  0.990735  0.0
H  H59  1  0.93138824  0.19442562  0.57492573  1  0.07686  0.000833  0.096223  0.141502  0.000315  0.991144  0.0
H  H60  1  0.43142454  0.79914712  0.07513580  1  0.066267  0.00084  0.096041  0.141532  0.000317  0.990697  0.0
H  H61  1  0.79919929  0.69440263  0.07504717  1  0.053816  0.000839  0.096294  0.141656  0.000314  0.992088  0.0
H  H62  1  0.69442652  0.43138787  0.07492551  1  0.076838  0.000833  0.096211  0.141493  0.000314  0.991146  0.0
H  H63  1  0.80559775  0.70079902  0.42495317  1  0.053826  0.000839  0.0963  0.141685  0.000315  0.992087  0.0
H  H64  1  0.70085442  0.06857652  0.42486274  1  0.066232  0.00084  0.096014  0.141483  0.000317  0.99076  0.0
H  H65  1  0.06861383  0.80557297  0.42507332  1  0.076868  0.000833  0.096234  0.141529  0.000315  0.991138  0.0
H  H66  1  0.83275816  0.13555794  0.90192452  1  0.055236  0.00036  0.094907  0.132189  4.6e-05  1.037341  0.0
H  H67  1  0.13549858  0.12965247  0.90206324  1  0.074931  0.000354  0.095062  0.132446  4.4e-05  1.036828  0.0
H  H68  1  0.12973834  0.83281389  0.90186757  1  0.065617  0.00036  0.094758  0.131599  4.6e-05  1.036312  0.0
H  H69  1  0.37034545  0.36450328  0.59793685  1  0.074925  0.000354  0.095074  0.132437  4.5e-05  1.036774  0.0
H  H70  1  0.36444063  0.66724144  0.59807618  1  0.05525  0.000361  0.094928  0.13223  4.6e-05  1.037306  0.0
H  H71  1  0.66718578  0.37026040  0.59813314  1  0.065591  0.00036  0.094773  0.131623  4.6e-05  1.036257  0.0
H  H72  1  0.16724207  0.86444126  0.09807610  1  0.055141  0.000361  0.094906  0.132205  4.6e-05  1.037328  0.0
H  H73  1  0.86450166  0.87034846  0.09793655  1  0.074941  0.000354  0.09508  0.13248  4.4e-05  1.036823  0.0
H  H74  1  0.87026129  0.16718610  0.09813247  1  0.065604  0.00036  0.094783  0.131644  4.6e-05  1.036254  0.0
H  H75  1  0.62965540  0.63549629  0.40206330  1  0.074903  0.000354  0.095093  0.132464  4.5e-05  1.036761  0.0
H  H76  1  0.63556022  0.33275756  0.40192325  1  0.055208  0.000361  0.094908  0.132206  4.6e-05  1.037264  0.0
H  H77  1  0.33281506  0.62973802  0.40186807  1  0.065624  0.00036  0.094769  0.131617  4.6e-05  1.036262  0.0
H  H78  1  0.83837884  0.14900813  0.97963859  1  0.043048  0.0001  0.091762  0.129538  5e-05  1.009819  0.0
H  H79  1  0.14892986  0.03287857  0.97974361  1  0.04148  0.000101  0.091973  0.130066  5.1e-05  1.00968  0.0
H  H80  1  0.03296288  0.83854576  0.97957724  1  0.034637  9.9e-05  0.091841  0.129451  5e-05  1.010256  0.0
H  H81  1  0.46712218  0.35106783  0.52025758  1  0.041482  0.000101  0.09198  0.130061  5.1e-05  1.009751  0.0
H  H82  1  0.35099097  0.66162012  0.52036267  1  0.043052  0.0001  0.091777  0.129569  5.1e-05  1.009839  0.0
H  H83  1  0.66145450  0.46703597  0.52042316  1  0.034637  9.9e-05  0.091836  0.129428  5e-05  1.010287  0.0
H  H84  1  0.16162017  0.85099149  0.02036243  1  0.043065  0.0001  0.091754  0.129539  5e-05  1.009832  0.0
H  H85  1  0.85107099  0.96712157  0.02025626  1  0.041636  0.000101  0.091963  0.130034  5.1e-05  1.009707  0.0
H  H86  1  0.96703614  0.16145559  0.02042194  1  0.034615  9.9e-05  0.09185  0.129478  5e-05  1.010249  0.0
H  H87  1  0.53287866  0.64892945  0.47974319  1  0.041654  0.000101  0.091974  0.130018  5.1e-05  1.009782  0.0
H  H88  1  0.64900865  0.33838102  0.47963682  1  0.043066  0.0001  0.091762  0.129547  5e-05  1.009835  0.0
H  H89  1  0.33854573  0.53296324  0.47957796  1  0.034648  9.9e-05  0.091849  0.129457  5e-05  1.010256  0.0
H  H90  1  0.89345178  0.19060615  0.87751855  1  0.045493  0.000689  0.094956  0.1372  0.000345  1.013098  0.0
H  H91  1  0.19049287  0.03833552  0.87763126  1  0.045614  0.000687  0.095236  0.137509  0.000343  1.012153  0.0
H  H92  1  0.03842463  0.89354506  0.87745288  1  0.046742  0.000692  0.095266  0.136871  0.000345  1.012152  0.0
H  H93  1  0.46166630  0.30950764  0.62236804  1  0.045616  0.000687  0.095233  0.137499  0.000343  1.012117  0.0
H  H94  1  0.30939360  0.60654719  0.62248238  1  0.045538  0.000689  0.094943  0.137179  0.000345  1.01312  0.0
H  H95  1  0.60645468  0.46157486  0.62254797  1  0.046745  0.000692  0.095249  0.136846  0.000345  1.012131  0.0
H  H96  1  0.10654846  0.80939305  0.12248207  1  0.045558  0.000689  0.094947  0.1372  0.000345  1.013086  0.0
H  H97  1  0.80950737  0.96166540  0.12236952  1  0.045594  0.000687  0.095241  0.137528  0.000343  1.012074  0.0
H  H98  1  0.96157561  0.10645530  0.12254620  1  0.046755  0.000692  0.095245  0.13683  0.000345  1.012192  0.0
H  H99  1  0.53833455  0.69049193  0.37763210  1  0.045642  0.000688  0.095246  0.137497  0.000343  1.012124  0.0
H  H100  1  0.69060664  0.39345316  0.37751719  1  0.045515  0.00069  0.09498  0.137262  0.000345  1.013096  0.0
H  H101  1  0.39354494  0.53842398  0.37745362  1  0.046757  0.000692  0.095233  0.136816  0.000345  1.012186  0.0
H  H102  1  0.98177418  0.07126310  0.72000979  1  0.081116  0.000385  0.098901  0.093854  -2e-06  1.04824  0.0
H  H103  1  0.07128362  0.22702460  0.71995927  1  0.08719  0.000379  0.098876  0.093831  -1e-06  1.047779  0.0
H  H104  1  0.22702737  0.98179452  0.71992677  1  0.097416  0.000379  0.099013  0.093776  -1e-06  1.047699  0.0
H  H105  1  0.27297468  0.42871800  0.78004031  1  0.087281  0.000379  0.098824  0.093742  -1e-06  1.047733  0.0
H  H106  1  0.42873813  0.51822705  0.77998878  1  0.080884  0.000385  0.098895  0.093831  -2e-06  1.048289  0.0
H  H107  1  0.51820624  0.27297448  0.78007093  1  0.097553  0.000379  0.099021  0.093789  -1e-06  1.047694  0.0
H  H108  1  0.01822727  0.92873626  0.27999066  1  0.081075  0.000385  0.098883  0.093839  -2e-06  1.04828  0.0
H  H109  1  0.92871662  0.77297633  0.28004101  1  0.087198  0.000379  0.098835  0.093767  -1e-06  1.047715  0.0
H  H110  1  0.77297409  0.01820714  0.28007158  1  0.097428  0.000379  0.099015  0.093797  -1e-06  1.047669  0.0
H  H111  1  0.72702373  0.57128471  0.21995802  1  0.087242  0.000379  0.098833  0.093767  -1e-06  1.047713  0.0
H  H112  1  0.57126333  0.48177174  0.22001046  1  0.081057  0.000385  0.098891  0.093817  -2e-06  1.048247  0.0
H  H113  1  0.48179278  0.72702572  0.21992831  1  0.097431  0.000379  0.099023  0.093806  -1e-06  1.047665  0.0
H  H114  1  0.84520479  0.89690802  0.87207087  1  0.06779  0.000598  0.098976  0.140944  0.000344  0.978367  0.0
H  H115  1  0.89684627  0.38572533  0.87206043  1  0.075085  0.000595  0.098848  0.140792  0.000343  0.978688  0.0
H  H116  1  0.38580731  0.84533985  0.87210917  1  0.041532  0.000602  0.098935  0.140526  0.000342  0.979016  0.0
H  H117  1  0.11427728  0.60315263  0.62794020  1  0.075242  0.000595  0.098884  0.140859  0.000343  0.978681  0.0
H  H118  1  0.60309099  0.65479747  0.62792930  1  0.067881  0.000598  0.098966  0.140898  0.000344  0.978387  0.0
H  H119  1  0.65466052  0.11419325  0.62789025  1  0.041578  0.000602  0.09892  0.140494  0.000343  0.979004  0.0
H  H120  1  0.15479606  0.10309155  0.12792878  1  0.067888  0.000598  0.098985  0.140964  0.000344  0.978338  0.0
H  H121  1  0.10315214  0.61427622  0.12793994  1  0.075103  0.000594  0.098859  0.140826  0.000342  0.978706  0.0
H  H122  1  0.61419231  0.15466072  0.12789009  1  0.041546  0.000602  0.098954  0.140557  0.000342  0.979001  0.0
H  H123  1  0.88572357  0.39684465  0.37205958  1  0.075231  0.000595  0.098865  0.140831  0.000342  0.978654  0.0
H  H124  1  0.39690680  0.34520199  0.37207238  1  0.067861  0.000598  0.099  0.140962  0.000344  0.978327  0.0
H  H125  1  0.34533972  0.88580712  0.37210833  1  0.041548  0.000602  0.098933  0.140504  0.000343  0.97898  0.0
H  H126  1  0.88381581  0.89534932  0.93481017  1  0.074685  0.000458  0.100103  0.14944  0.000235  1.003407  0.0
H  H127  1  0.89532634  0.28592703  0.93479762  1  0.047145  0.000461  0.099944  0.14965  0.000234  1.002703  0.0
H  H128  1  0.28600464  0.88391119  0.93483909  1  0.07553  0.000455  0.099812  0.14909  0.000235  1.003369  0.0
H  H129  1  0.21407360  0.60467302  0.56520274  1  0.047136  0.000461  0.099932  0.149637  0.000234  1.002743  0.0
H  H130  1  0.60465004  0.61618578  0.56519014  1  0.074741  0.000458  0.100071  0.149357  0.000235  1.003479  0.0
H  H131  1  0.61608945  0.21399595  0.56515973  1  0.075605  0.000455  0.099791  0.149054  0.000235  1.003406  0.0
H  H132  1  0.11618443  0.10464989  0.06518995  1  0.074696  0.000458  0.100098  0.149419  0.000235  1.003428  0.0
H  H133  1  0.10467329  0.71407353  0.06520264  1  0.047129  0.00046  0.099924  0.14962  0.000234  1.002757  0.0
H  H134  1  0.71399438  0.11608901  0.06516016  1  0.075454  0.000455  0.099824  0.149103  0.000234  1.003373  0.0
H  H135  1  0.78592603  0.39532583  0.43479687  1  0.047128  0.000461  0.099958  0.149651  0.000234  1.002745  0.0
H  H136  1  0.39535019  0.38381342  0.43481147  1  0.074707  0.000458  0.100075  0.149405  0.000235  1.003471  0.0
H  H137  1  0.38391202  0.78600514  0.43483840  1  0.075504  0.000455  0.099809  0.149083  0.000235  1.003414  0.0
H  H138  1  0.92384737  0.93863580  0.82838468  1  0.099624  0.00011  0.098721  0.151557  8e-06  1.011906  0.0
H  H139  1  0.93866603  0.30901142  0.82838052  1  0.096961  0.00011  0.099101  0.152212  8e-06  1.011736  0.0
H  H140  1  0.30907418  0.92389646  0.82843923  1  0.093909  0.00011  0.098691  0.15155  8e-06  1.01221  0.0
H  H141  1  0.19098939  0.56133342  0.67162019  1  0.096741  0.00011  0.099098  0.152215  8e-06  1.011753  0.0
H  H142  1  0.56136445  0.57615393  0.67161485  1  0.099649  0.00011  0.098709  0.151505  8e-06  1.011912  0.0
H  H143  1  0.57610458  0.19092608  0.67156004  1  0.093844  0.00011  0.098704  0.151556  8e-06  1.012253  0.0
H  H144  1  0.07615287  0.06136398  0.17161517  1  0.099625  0.00011  0.098711  0.15153  8e-06  1.011927  0.0
H  H145  1  0.06133359  0.69098972  0.17161946  1  0.096779  0.00011  0.099088  0.152195  8e-06  1.011729  0.0
H  H146  1  0.69092606  0.07610448  0.17155906  1  0.093835  0.00011  0.098709  0.151555  8e-06  1.012277  0.0
H  H147  1  0.80901023  0.43866485  0.32837920  1  0.096768  0.00011  0.099129  0.152257  8e-06  1.011694  0.0
H  H148  1  0.43863578  0.42384527  0.32838726  1  0.099655  0.00011  0.098736  0.151566  8e-06  1.011939  0.0
H  H149  1  0.42389688  0.80907443  0.32843836  1  0.093886  0.00011  0.098705  0.15154  8e-06  1.012216  0.0
H  H150  1  0.60433207  0.48544588  0.94919644  1  0.041888  0.000661  0.097  0.132667  0.000373  0.988074  0.0
H  H151  1  0.48539086  0.96090111  0.94935964  1  0.033171  0.000659  0.097076  0.132861  0.000371  0.987421  0.0
H  H152  1  0.96103013  0.60436063  0.94925887  1  0.05993  0.000657  0.097022  0.132691  0.000374  0.987756  0.0
H  H153  1  0.53910194  0.01460665  0.55063996  1  0.033135  0.000659  0.097054  0.132836  0.000371  0.987422  0.0
H  H154  1  0.01455289  0.89566599  0.55080558  1  0.041824  0.000661  0.096976  0.132608  0.000373  0.988175  0.0
H  H155  1  0.89563935  0.53896954  0.55074049  1  0.059952  0.000657  0.097034  0.132717  0.000374  0.987736  0.0
H  H156  1  0.39566572  0.51455301  0.05080453  1  0.04182  0.000661  0.096943  0.132549  0.000373  0.98813  0.0
H  H157  1  0.51460877  0.03910003  0.05064034  1  0.033156  0.000659  0.097071  0.132861  0.000371  0.987436  0.0
H  H158  1  0.03897133  0.39563931  0.05074081  1  0.059891  0.000657  0.097005  0.13268  0.000374  0.987741  0.0
H  H159  1  0.46089952  0.98539329  0.44935922  1  0.033127  0.000659  0.097052  0.132856  0.000371  0.98745  0.0
H  H160  1  0.98544612  0.10433478  0.44919587  1  0.041809  0.000661  0.096962  0.132588  0.000373  0.988153  0.0
H  H161  1  0.10436028  0.46103160  0.44925900  1  0.059959  0.000658  0.097042  0.132736  0.000374  0.987759  0.0
H  H162  1  0.56666967  0.40922994  0.03485168  1  0.043771  0.000329  0.098676  0.138411  0.000182  0.991903  0.0
H  H163  1  0.40913327  0.98915036  0.03500488  1  0.050097  0.000325  0.09885  0.138689  0.000181  0.991753  0.0
H  H164  1  0.98924619  0.56664528  0.03495038  1  0.044755  0.00033  0.098827  0.138619  0.000182  0.992044  0.0
H  H165  1  0.51085004  0.09086642  0.46499592  1  0.050111  0.000325  0.098836  0.138697  0.000181  0.991768  0.0
H  H166  1  0.09076814  0.93332856  0.46514953  1  0.043815  0.000329  0.098667  0.138554  0.000182  0.991745  0.0
H  H167  1  0.93335617  0.51075360  0.46504815  1  0.044723  0.00033  0.098837  0.138614  0.000182  0.99206  0.0
H  H168  1  0.43332873  0.59076817  0.96514887  1  0.043778  0.000329  0.098658  0.138549  0.000182  0.991766  0.0
H  H169  1  0.59086696  0.01085000  0.96499519  1  0.050095  0.000325  0.098843  0.13869  0.000181  0.991762  0.0
H  H170  1  0.01075527  0.43335408  0.96504957  1  0.04474  0.00033  0.09883  0.138615  0.000182  0.992077  0.0
H  H171  1  0.48915020  0.90913508  0.53500359  1  0.050112  0.000325  0.098848  0.138709  0.000181  0.991789  0.0
H  H172  1  0.90923026  0.06667299  0.53485134  1  0.043793  0.000329  0.098667  0.138551  0.000182  0.991751  0.0
H  H173  1  0.06664469  0.48924713  0.53494996  1  0.044733  0.00033  0.098824  0.138605  0.000182  0.992075  0.0
H  H174  1  0.53569503  0.45412628  0.94868235  1  0.043792  0.000257  0.100919  0.143124  9.4e-05  0.990163  0.0
H  H175  1  0.45403532  0.06139868  0.94883585  1  0.036436  0.000255  0.10066  0.142904  9.3e-05  0.990195  0.0
H  H176  1  0.06150446  0.53573244  0.94874596  1  0.043462  0.000257  0.100989  0.143494  9.4e-05  0.990309  0.0
H  H177  1  0.43860293  0.04596392  0.55116262  1  0.036457  0.000255  0.100645  0.142894  9.3e-05  0.990192  0.0
H  H178  1  0.04587310  0.96430206  0.55131887  1  0.043863  0.000257  0.100848  0.14298  9.4e-05  0.990224  0.0
H  H179  1  0.96426771  0.43849463  0.55125329  1  0.043381  0.000257  0.10097  0.143463  9.4e-05  0.990217  0.0
H  H180  1  0.46430215  0.54587225  0.05131860  1  0.043863  0.000257  0.100862  0.143002  9.4e-05  0.990198  0.0
H  H181  1  0.54596492  0.93860168  0.05116372  1  0.036446  0.000255  0.100649  0.142919  9.3e-05  0.990193  0.0
H  H182  1  0.93849639  0.46426771  0.05125391  1  0.043449  0.000257  0.100965  0.143463  9.4e-05  0.990241  0.0
H  H183  1  0.56139853  0.95403603  0.44883607  1  0.036445  0.000255  0.100627  0.142858  9.3e-05  0.990185  0.0
H  H184  1  0.95412775  0.03569809  0.44868150  1  0.043878  0.000257  0.10085  0.142982  9.4e-05  0.990198  0.0
H  H185  1  0.03573131  0.56150615  0.44874618  1  0.043448  0.000257  0.101  0.143516  9.4e-05  0.990236  0.0
C  C186  1  0.93713000  0.22540561  0.71969984  1  1.55553  0.008718  0.208226  0.571382  0.0085  4.21057  0.008
C  C187  1  0.22541938  0.11781167  0.71965222  1  1.578253  0.008688  0.208708  0.572985  0.008494  4.210018  0.008
C  C188  1  0.11778703  0.93712994  0.71972902  1  1.565214  0.008703  0.20896  0.572954  0.00849  4.206513  0.008
C  C189  1  0.38218721  0.27458221  0.78034997  1  1.578801  0.008688  0.20873  0.572971  0.008497  4.210071  0.008
C  C190  1  0.27459462  0.56287276  0.78029952  1  1.55714  0.008715  0.208244  0.571482  0.008501  4.210418  0.008
C  C191  1  0.56287131  0.38221664  0.78026709  1  1.56526  0.008701  0.208968  0.573043  0.008488  4.206502  0.008
C  C192  1  0.06287635  0.77459208  0.28030054  1  1.557473  0.00871  0.208253  0.571551  0.008496  4.210525  0.008
C  C193  1  0.77458145  0.88218731  0.28035119  1  1.578493  0.008688  0.208818  0.573153  0.008496  4.209939  0.008
C  C194  1  0.88221442  0.06286942  0.28027094  1  1.565232  0.008699  0.208969  0.572954  0.008486  4.206495  0.008
C  C195  1  0.61781424  0.72541772  0.21965120  1  1.578356  0.008684  0.20872  0.573006  0.008492  4.210019  0.008
C  C196  1  0.72540440  0.43712859  0.21970065  1  1.555629  0.00872  0.208221  0.571443  0.008502  4.210479  0.008
C  C197  1  0.43713138  0.61778347  0.21973043  1  1.565213  0.008707  0.208905  0.57294  0.008494  4.206759  0.008
C  C198  1  0.69267463  0.11966172  0.91438616  1  0.46357  0.011075  0.10115  0.204979  0.008734  4.002103  0.009
C  C199  1  0.11958868  0.27321766  0.91446596  1  0.467708  0.011022  0.100696  0.203949  0.008695  4.003489  0.009
C  C200  1  0.27321749  0.69270535  0.91456701  1  0.443517  0.010998  0.10146  0.206275  0.008682  4.001725  0.009
C  C201  1  0.22677929  0.38041178  0.58553581  1  0.467784  0.011022  0.100694  0.203904  0.008695  4.003464  0.009
C  C202  1  0.38033592  0.80732649  0.58561430  1  0.463628  0.011074  0.10115  0.205006  0.008734  4.002017  0.009
C  C203  1  0.80729516  0.22678174  0.58543347  1  0.443471  0.011003  0.101487  0.20628  0.008687  4.001714  0.009
C  C204  1  0.30732439  0.88033733  0.08561365  1  0.463612  0.01107  0.101095  0.204956  0.00873  4.002044  0.009
C  C205  1  0.88040971  0.72678217  0.08553624  1  0.468028  0.011012  0.100686  0.203853  0.008688  4.003612  0.009
C  C206  1  0.72678091  0.30729218  0.08543531  1  0.443526  0.010994  0.101451  0.206327  0.008679  4.001794  0.009
C  C207  1  0.77321973  0.61958900  0.41446316  1  0.468126  0.011019  0.100715  0.203914  0.008693  4.003429  0.009
C  C208  1  0.61966308  0.19267313  0.41438770  1  0.463655  0.011078  0.101155  0.204975  0.008737  4.00194  0.009
C  C209  1  0.19270568  0.77321726  0.41456646  1  0.443498  0.011002  0.101466  0.206315  0.008686  4.001689  0.009
C  C210  1  0.76416567  0.25595851  0.91285348  1  0.476074  0.011539  0.10017  0.20772  0.00912  3.997087  0.009
C  C211  1  0.25591093  0.06688659  0.91295893  1  0.435223  0.011537  0.099544  0.207365  0.009077  3.998177  0.009
C  C212  1  0.06694696  0.76424191  0.91290807  1  0.482152  0.011608  0.098993  0.206861  0.009129  3.995779  0.009
C  C213  1  0.43311417  0.24408839  0.58704195  1  0.435507  0.011536  0.099525  0.207275  0.009077  3.99825  0.009
C  C214  1  0.24404233  0.73583261  0.58714683  1  0.47595  0.011543  0.100121  0.207598  0.009123  3.997237  0.009
C  C215  1  0.73575817  0.43305308  0.58709132  1  0.482145  0.011607  0.098974  0.206898  0.009128  3.995785  0.009
C  C216  1  0.23583335  0.74404169  0.08714676  1  0.475907  0.011543  0.100136  0.207651  0.009123  3.997059  0.009
C  C217  1  0.74408930  0.93311377  0.08704114  1  0.435095  0.011539  0.099537  0.207307  0.009079  3.998189  0.009
C  C218  1  0.93305327  0.23575729  0.08709305  1  0.482058  0.011604  0.098955  0.206868  0.009125  3.995849  0.009
C  C219  1  0.56688606  0.75591024  0.41295945  1  0.435206  0.011543  0.099511  0.207326  0.009082  3.998099  0.009
C  C220  1  0.75595851  0.26416754  0.41285404  1  0.475876  0.011547  0.100151  0.207677  0.009126  3.997037  0.009
C  C221  1  0.26424145  0.56694576  0.41291028  1  0.48213  0.01161  0.099052  0.207008  0.009131  3.995868  0.009
C  C222  1  0.01723721  0.15630849  0.72159079  1  -0.004556  0.001787  -0.02478  -0.046671  0.001031  3.999672  0.001
C  C223  1  0.15631794  0.10492718  0.72154124  1  0.029618  0.001791  -0.025003  -0.048511  0.001027  3.999905  0.001
C  C224  1  0.10491868  0.01724357  0.72159041  1  0.049605  0.001766  -0.025288  -0.048243  0.001034  3.999436  0.001
C  C225  1  0.39507330  0.34368406  0.77845951  1  0.029742  0.001791  -0.025036  -0.048523  0.001027  3.999912  0.001
C  C226  1  0.34369141  0.48276620  0.77840712  1  -0.006109  0.00179  -0.024753  -0.046662  0.001031  3.999731  0.001
C  C227  1  0.48275564  0.39508364  0.77840732  1  0.049618  0.001767  -0.02528  -0.048227  0.001035  3.99942  0.001
C  C228  1  0.98276669  0.84368946  0.27841015  1  -0.006099  0.001791  -0.024722  -0.046756  0.001032  3.999736  0.001
C  C229  1  0.84368474  0.89507234  0.27845954  1  0.029877  0.001791  -0.025062  -0.04862  0.001027  3.999919  0.001
C  C230  1  0.89508216  0.98275428  0.27841008  1  0.049678  0.001767  -0.025267  -0.048144  0.001035  3.999446  0.001
C  C231  1  0.60492694  0.65631630  0.22154056  1  0.029757  0.001792  -0.025026  -0.048543  0.001028  3.999957  0.001
C  C232  1  0.65630945  0.51723626  0.22158965  1  -0.005939  0.001788  -0.024783  -0.046797  0.00103  3.999876  0.001
C  C233  1  0.51724644  0.60491609  0.22159067  1  0.049633  0.001766  -0.025302  -0.048236  0.001034  3.999391  0.001
C  C234  1  0.80389615  0.01286606  0.88452561  1  0.425535  0.008851  0.100856  0.199548  0.006937  3.991902  0.006
C  C235  1  0.01282541  0.29863506  0.88457313  1  0.413301  0.008846  0.100738  0.199447  0.006905  3.992899  0.006
C  C236  1  0.29872335  0.80391616  0.88463714  1  0.395104  0.008848  0.102176  0.201714  0.006902  3.989754  0.006
C  C237  1  0.20136344  0.48717483  0.61542902  1  0.413456  0.008846  0.10075  0.199489  0.006905  3.992863  0.006
C  C238  1  0.48713300  0.69610515  0.61547451  1  0.425569  0.00885  0.100842  0.199533  0.006936  3.991848  0.006
C  C239  1  0.69608546  0.20127722  0.61536317  1  0.395177  0.00885  0.102225  0.201796  0.006904  3.98959  0.006
C  C240  1  0.19610347  0.98713393  0.11547493  1  0.425577  0.008848  0.100877  0.199644  0.006934  3.991727  0.006
C  C241  1  0.98717299  0.70136476  0.11542857  1  0.41305  0.008839  0.100746  0.199443  0.006899  3.992927  0.006
C  C242  1  0.70127443  0.19608331  0.11536504  1  0.395222  0.008847  0.102189  0.201805  0.006902  3.989524  0.006
C  C243  1  0.79863435  0.51282579  0.38457111  1  0.413246  0.008844  0.100756  0.19952  0.006903  3.992889  0.006
C  C244  1  0.51286601  0.30389447  0.38452799  1  0.425596  0.008853  0.100891  0.199667  0.006938  3.991889  0.006
C  C245  1  0.30391600  0.79872444  0.38463617  1  0.395199  0.00885  0.10216  0.201661  0.006904  3.989716  0.006
C  C246  1  0.61387818  0.17423001  0.95470606  1  -0.089763  0.000288  -0.234369  -0.421416  1.6e-05  3.960887  0.0
C  C247  1  0.17416253  0.25709474  0.95479972  1  -0.029461  0.000274  -0.234546  -0.420779  1.6e-05  3.963213  0.0
C  C248  1  0.25707940  0.61393988  0.95489629  1  -0.0227  0.000272  -0.234391  -0.421431  1.7e-05  3.963802  0.0
C  C249  1  0.24290325  0.32583874  0.54520113  1  -0.029472  0.000274  -0.234591  -0.420837  1.6e-05  3.963093  0.0
C  C250  1  0.32576981  0.88612224  0.54529225  1  -0.089803  0.000288  -0.234393  -0.421515  1.6e-05  3.960995  0.0
C  C251  1  0.88606076  0.24292003  0.54510402  1  -0.022726  0.000272  -0.234401  -0.421467  1.7e-05  3.963789  0.0
C  C252  1  0.38612145  0.82577056  0.04529271  1  -0.08982  0.000288  -0.234411  -0.421513  1.6e-05  3.960952  0.0
C  C253  1  0.82583710  0.74290583  0.04519955  1  -0.030015  0.000274  -0.234531  -0.420698  1.6e-05  3.963135  0.0
C  C254  1  0.74292024  0.38606127  0.04510171  1  -0.022598  0.000272  -0.234372  -0.421474  1.7e-05  3.963568  0.0
C  C255  1  0.75709761  0.67416026  0.45479731  1  -0.02977  0.000274  -0.23456  -0.420812  1.6e-05  3.96321  0.0
C  C256  1  0.67423044  0.11387812  0.45470683  1  -0.089873  0.000288  -0.234385  -0.421426  1.6e-05  3.96103  0.0
C  C257  1  0.11394132  0.75707855  0.45489503  1  -0.022698  0.000272  -0.234395  -0.421473  1.7e-05  3.963831  0.0
C  C258  1  0.73217707  0.03451139  0.94710505  1  0.018312  0.001987  -0.036708  -0.146908  0.001419  4.0789  0.001
C  C259  1  0.03443375  0.28618060  0.94715620  1  -0.040309  0.002023  -0.03677  -0.147232  0.001422  4.081698  0.001
C  C260  1  0.28625074  0.73217880  0.94723270  1  0.024516  0.001986  -0.037574  -0.149043  0.001422  4.080989  0.001
C  C261  1  0.21381546  0.46556715  0.55284630  1  -0.04062  0.002024  -0.036754  -0.147193  0.001422  4.081624  0.001
C  C262  1  0.46548851  0.76782453  0.55289455  1  0.01831  0.001987  -0.036691  -0.146881  0.001419  4.078844  0.001
C  C263  1  0.76781974  0.21374977  0.55276762  1  0.024531  0.001986  -0.03758  -0.149082  0.001423  4.081036  0.001
C  C264  1  0.26782440  0.96548970  0.05289308  1  0.018337  0.001986  -0.036715  -0.146969  0.001419  4.078852  0.001
C  C265  1  0.96556526  0.71381845  0.05284509  1  -0.040286  0.002023  -0.036765  -0.147185  0.001422  4.081606  0.001
C  C266  1  0.71374828  0.26782312  0.05276719  1  0.0245  0.001986  -0.037569  -0.149124  0.001423  4.081009  0.001
C  C267  1  0.78618233  0.53443289  0.44715361  1  -0.040566  0.002023  -0.036799  -0.147176  0.001421  4.081597  0.001
C  C268  1  0.53451050  0.23217681  0.44710811  1  0.015903  0.001989  -0.036704  -0.146935  0.001419  4.078945  0.001
C  C269  1  0.23217928  0.78624985  0.44723240  1  0.024446  0.001986  -0.037579  -0.149042  0.001422  4.081004  0.001
C  C270  1  0.65676613  0.36684734  0.93650937  1  0.407282  0.008923  0.096474  0.19396  0.006774  4.012405  0.006
C  C271  1  0.36677672  0.03974887  0.93665572  1  0.405007  0.008863  0.09679  0.195693  0.006735  4.010955  0.006
C  C272  1  0.03983722  0.65678796  0.93662572  1  0.421027  0.00891  0.096665  0.195317  0.006782  4.010274  0.006
C  C273  1  0.46025188  0.13322048  0.56334565  1  0.405012  0.008863  0.096708  0.195636  0.006736  4.011139  0.006
C  C274  1  0.13315444  0.84323077  0.56349022  1  0.407339  0.008925  0.096482  0.193934  0.006775  4.012514  0.006
C  C275  1  0.84321293  0.46016227  0.56337302  1  0.420998  0.008909  0.096707  0.195459  0.006782  4.010121  0.006
C  C276  1  0.34323044  0.63315542  0.06349031  1  0.407304  0.008923  0.096453  0.193886  0.006774  4.01253  0.006
C  C277  1  0.63322474  0.96024993  0.06334253  1  0.405025  0.008865  0.096821  0.195665  0.006737  4.010969  0.006
C  C278  1  0.96016240  0.34321088  0.06337587  1  0.421203  0.008905  0.096757  0.195513  0.006779  4.010152  0.006
C  C279  1  0.53974590  0.86677840  0.43665829  1  0.405161  0.008868  0.096785  0.195723  0.006739  4.010956  0.006
C  C280  1  0.86684580  0.15676959  0.43650786  1  0.407378  0.008927  0.096462  0.193871  0.006777  4.012517  0.006
C  C281  1  0.15678670  0.53983888  0.43662547  1  0.421057  0.008912  0.096743  0.195514  0.006784  4.010175  0.006
C  C282  1  0.71236526  0.29567718  0.97168548  1  0.049537  0.003306  -0.039265  -0.150575  0.002453  4.085569  0.002
C  C283  1  0.29563740  0.02012577  0.97179364  1  0.04985  0.003333  -0.039925  -0.152298  0.00246  4.0864  0.002
C  C284  1  0.02020538  0.71243380  0.97176309  1  0.031248  0.003345  -0.039262  -0.150954  0.002456  4.085358  0.002
C  C285  1  0.47987541  0.20436078  0.52820904  1  0.051939  0.003332  -0.039925  -0.152286  0.00246  4.086391  0.002
C  C286  1  0.20432430  0.78763344  0.52831285  1  0.049637  0.003307  -0.039254  -0.15056  0.002454  4.085632  0.002
C  C287  1  0.78756652  0.47979309  0.52823644  1  0.03125  0.003345  -0.039296  -0.151074  0.002456  4.085267  0.002
C  C288  1  0.28763498  0.70432375  0.02831331  1  0.049663  0.003307  -0.039243  -0.150548  0.002454  4.085704  0.002
C  C289  1  0.70436345  0.97987381  0.02820551  1  0.050008  0.003335  -0.039926  -0.152258  0.002461  4.086292  0.002
C  C290  1  0.97979363  0.28756582  0.02823891  1  0.03124  0.003345  -0.039297  -0.151009  0.002456  4.085345  0.002
C  C291  1  0.52012359  0.79563826  0.47179424  1  0.049874  0.003335  -0.039951  -0.152358  0.002461  4.086331  0.002
C  C292  1  0.79567594  0.21236634  0.47168699  1  0.049634  0.003306  -0.039239  -0.150545  0.002453  4.085714  0.002
C  C293  1  0.21243127  0.52020695  0.47176397  1  0.031229  0.003345  -0.039315  -0.151075  0.002456  4.085326  0.002
C  C294  1  0.83579123  0.17858599  0.91825227  1  -0.050807  0.000374  -0.23603  -0.426576  0.000191  3.960557  0.0
C  C295  1  0.17852859  0.06726442  0.91834860  1  -0.061012  0.000376  -0.236484  -0.427472  0.00019  3.959952  0.0
C  C296  1  0.06733140  0.83589073  0.91822037  1  -0.04931  0.000368  -0.235645  -0.424658  0.000192  3.957514  0.0
C  C297  1  0.43273651  0.32147059  0.58165030  1  -0.06099  0.000376  -0.236476  -0.427406  0.00019  3.959938  0.0
C  C298  1  0.32141468  0.66420775  0.58174774  1  -0.050913  0.000374  -0.236071  -0.426623  0.000191  3.96062  0.0
C  C299  1  0.66410955  0.43266781  0.58177983  1  -0.049317  0.000368  -0.235652  -0.424654  0.000192  3.957477  0.0
C  C300  1  0.16420779  0.82141363  0.08174874  1  -0.050805  0.000374  -0.236008  -0.42657  0.000191  3.960553  0.0
C  C301  1  0.82147226  0.93273515  0.08165155  1  -0.061154  0.000376  -0.236465  -0.427441  0.00019  3.959884  0.0
C  C302  1  0.93266823  0.16411041  0.08177862  1  -0.049294  0.000368  -0.235643  -0.424669  0.000192  3.957506  0.0
C  C303  1  0.56726433  0.67852841  0.41835013  1  -0.061176  0.000376  -0.236434  -0.427295  0.00019  3.95993  0.0
C  C304  1  0.67858800  0.33579292  0.41825099  1  -0.05084  0.000374  -0.236067  -0.426652  0.000192  3.960592  0.0
C  C305  1  0.33588946  0.56733123  0.41822245  1  -0.049347  0.000368  -0.235658  -0.424677  0.000193  3.957527  0.0
C  C306  1  0.02990284  0.08086593  0.72157774  1  -0.077865  0.004792  -0.078731  -0.099364  0.003531  3.949052  0.003
C  C307  1  0.08085911  0.16773157  0.72154462  1  -0.09912  0.004796  -0.078867  -0.09927  0.003534  3.947784  0.003
C  C308  1  0.16772501  0.02992242  0.72152219  1  -0.097109  0.004789  -0.078793  -0.098742  0.003529  3.947804  0.003
C  C309  1  0.33226957  0.41914101  0.77845674  1  -0.099347  0.004796  -0.078791  -0.099138  0.003534  3.94776  0.003
C  C310  1  0.41913562  0.47009842  0.77842040  1  -0.077706  0.004791  -0.078767  -0.099428  0.003531  3.949154  0.003
C  C311  1  0.47007880  0.33227607  0.77847713  1  -0.097306  0.00479  -0.078864  -0.098829  0.003529  3.947761  0.003
C  C312  1  0.97009739  0.91913557  0.27842277  1  -0.077986  0.00479  -0.078759  -0.099391  0.00353  3.949191  0.003
C  C313  1  0.91914112  0.83226993  0.27845687  1  -0.099294  0.004794  -0.078817  -0.099106  0.003532  3.947695  0.003
C  C314  1  0.83227583  0.97007888  0.27847762  1  -0.097211  0.004788  -0.078819  -0.098801  0.003527  3.947744  0.003
C  C315  1  0.66772945  0.58085919  0.22154250  1  -0.097959  0.004795  -0.078766  -0.099083  0.003534  3.947864  0.003
C  C316  1  0.58086523  0.52990116  0.22157827  1  -0.077912  0.004792  -0.07872  -0.099289  0.003532  3.949033  0.003
C  C317  1  0.52992144  0.66772371  0.22152321  1  -0.097196  0.00479  -0.078851  -0.098823  0.003529  3.947756  0.003
C  C318  1  0.86786166  0.93213279  0.87945507  1  -0.093104  0.000448  -0.231056  -0.429186  0.000412  3.947267  0.0
C  C319  1  0.93212215  0.32044543  0.87946262  1  -0.087809  0.000451  -0.230918  -0.429878  0.000412  3.94723  0.0
C  C320  1  0.32053434  0.86792626  0.87949771  1  -0.065191  0.000445  -0.231045  -0.429115  0.000412  3.94815  0.0
C  C321  1  0.17955548  0.56787831  0.62053805  1  -0.08771  0.000451  -0.230989  -0.430005  0.000412  3.947324  0.0
C  C322  1  0.56786524  0.63213962  0.62054556  1  -0.09322  0.000448  -0.23102  -0.429006  0.000412  3.947253  0.0
C  C323  1  0.63207171  0.17946692  0.62050207  1  -0.06523  0.000445  -0.231021  -0.429055  0.000412  3.948014  0.0
C  C324  1  0.13213858  0.06786584  0.12054533  1  -0.093195  0.000448  -0.231056  -0.429168  0.000412  3.947266  0.0
C  C325  1  0.06787747  0.67955628  0.12053708  1  -0.087624  0.000451  -0.230932  -0.429911  0.000412  3.947345  0.0
C  C326  1  0.67946529  0.13207258  0.12050289  1  -0.065091  0.000445  -0.231057  -0.429153  0.000412  3.948225  0.0
C  C327  1  0.82044415  0.43212111  0.37946128  1  -0.087745  0.000451  -0.231023  -0.430046  0.000412  3.947228  0.0
C  C328  1  0.43213377  0.36786114  0.37945589  1  -0.093187  0.000448  -0.23106  -0.429193  0.000412  3.947332  0.0
C  C329  1  0.36792792  0.82053365  0.37949670  1  -0.065174  0.000445  -0.231044  -0.42905  0.000412  3.948058  0.0
C  C330  1  0.58712229  0.43241955  0.96886924  1  -0.039813  0.000503  -0.229323  -0.421503  0.000468  3.995564  0.0
C  C331  1  0.43235553  0.01146655  0.96902194  1  -0.009412  0.000493  -0.229387  -0.422258  0.000466  3.994684  0.0
C  C332  1  0.01156982  0.58714014  0.96896758  1  -0.033247  0.000493  -0.22979  -0.42296  0.000468  3.995797  0.0
C  C333  1  0.48853520  0.06764309  0.53097824  1  -0.009446  0.000493  -0.229341  -0.422241  0.000466  3.994738  0.0
C  C334  1  0.06757835  0.91287542  0.53113286  1  -0.039854  0.000503  -0.229207  -0.4214  0.000468  3.995485  0.0
C  C335  1  0.91285951  0.48843070  0.53102976  1  -0.033145  0.000493  -0.229775  -0.422947  0.000468  3.995678  0.0
C  C336  1  0.41287611  0.56757857  0.03113081  1  -0.039824  0.000503  -0.229176  -0.421337  0.000468  3.995331  0.0
C  C337  1  0.56764348  0.98853423  0.03097802  1  -0.009434  0.000493  -0.229386  -0.422286  0.000466  3.994673  0.0
C  C338  1  0.98843225  0.41285902  0.03103119  1  -0.033316  0.000493  -0.229769  -0.422969  0.000469  3.995671  0.0
C  C339  1  0.51146443  0.93235748  0.46902202  1  -0.009476  0.000493  -0.229385  -0.422294  0.000466  3.994813  0.0
C  C340  1  0.93242250  0.08712472  0.46886801  1  -0.039835  0.000503  -0.229177  -0.421333  0.000468  3.995309  0.0
C  C341  1  0.08713889  0.51157028  0.46896940  1  -0.033261  0.000493  -0.229814  -0.423043  0.000469  3.99571  0.0
N  N342  1  0.73753692  0.14831081  0.83746227  1  -0.759304  0.046658  -0.247767  -0.2414  0.032815  3.396964  0.017
N  N343  1  0.14827336  0.27658875  0.83755278  1  -0.764266  0.046721  -0.247808  -0.242309  0.032848  3.396406  0.017
N  N344  1  0.27656980  0.73757843  0.83764572  1  -0.755287  0.046682  -0.248026  -0.242273  0.032846  3.395752  0.017
N  N345  1  0.22340894  0.35172815  0.66244762  1  -0.764231  0.046723  -0.247804  -0.242276  0.032847  3.39637  0.017
N  N346  1  0.35168573  0.76246313  0.66253726  1  -0.759387  0.04665  -0.24773  -0.241353  0.032814  3.39683  0.017
N  N347  1  0.76242377  0.22342780  0.66235475  1  -0.755413  0.046696  -0.248008  -0.242164  0.032841  3.395704  0.017
N  N348  1  0.26246393  0.85168704  0.16253723  1  -0.759335  0.046643  -0.247699  -0.241232  0.03281  3.396848  0.017
N  N349  1  0.85172505  0.72341397  0.16244555  1  -0.764337  0.046703  -0.247827  -0.242266  0.032842  3.396352  0.017
N  N350  1  0.72342922  0.26242350  0.16235318  1  -0.755398  0.046687  -0.248031  -0.242289  0.032846  3.395889  0.017
N  N351  1  0.77658886  0.64827363  0.33755047  1  -0.764936  0.046705  -0.247793  -0.242269  0.032842  3.396259  0.017
N  N352  1  0.64831145  0.23753597  0.33746391  1  -0.759386  0.046665  -0.247785  -0.241387  0.032812  3.396772  0.017
N  N353  1  0.23757952  0.77656922  0.33764595  1  -0.755276  0.046688  -0.247994  -0.242175  0.032841  3.395649  0.017
N  N354  1  0.74047118  0.29991813  0.84707058  1  -0.773119  0.05062  -0.251642  -0.24271  0.034471  3.39586  0.014
N  N355  1  0.29984916  0.11243785  0.84721327  1  -0.766662  0.050648  -0.251011  -0.242486  0.034429  3.396319  0.014
N  N356  1  0.11250024  0.74048277  0.84716729  1  -0.766363  0.050727  -0.251314  -0.243097  0.034451  3.394914  0.014
N  N357  1  0.38756359  0.20014880  0.65278793  1  -0.766639  0.050656  -0.251025  -0.242422  0.034427  3.396221  0.014
N  N358  1  0.20008104  0.75952696  0.65292864  1  -0.77302  0.050613  -0.251598  -0.242608  0.034472  3.395912  0.014
N  N359  1  0.75951884  0.38749817  0.65283163  1  -0.766341  0.050722  -0.251271  -0.243087  0.034454  3.394946  0.014
N  N360  1  0.25952845  0.70008071  0.15293052  1  -0.772939  0.050601  -0.251603  -0.242627  0.034472  3.395703  0.014
N  N361  1  0.70015047  0.88756387  0.15278594  1  -0.766583  0.050649  -0.251067  -0.242508  0.034432  3.39622  0.014
N  N362  1  0.88749755  0.25951842  0.15283256  1  -0.766256  0.050711  -0.251299  -0.243182  0.034454  3.394921  0.014
N  N363  1  0.61243359  0.79985202  0.34721438  1  -0.766647  0.050653  -0.251063  -0.242537  0.034434  3.396288  0.014
N  N364  1  0.79992104  0.24047278  0.34706836  1  -0.773064  0.050633  -0.251641  -0.242715  0.034469  3.395637  0.014
N  N365  1  0.24048200  0.61249968  0.34716886  1  -0.766302  0.050735  -0.251355  -0.243195  0.034455  3.395095  0.014
N  N366  1  0.80361310  0.08284448  0.82103697  1  -0.859203  0.004189  -0.28531  -0.154188  0.002037  3.73665  0.002
N  N367  1  0.08281677  0.29238626  0.82111270  1  -0.829508  0.004118  -0.285108  -0.152869  0.002025  3.734644  0.002
N  N368  1  0.29241334  0.80364524  0.82120032  1  -0.849755  0.004163  -0.285968  -0.155034  0.002029  3.736756  0.002
N  N369  1  0.20761260  0.41718265  0.67888867  1  -0.829473  0.004118  -0.28512  -0.152897  0.002025  3.734669  0.002
N  N370  1  0.41715449  0.69638690  0.67896187  1  -0.859168  0.004189  -0.285288  -0.154191  0.002037  3.736597  0.002
N  N371  1  0.69635481  0.20758568  0.67880001  1  -0.849745  0.004165  -0.286028  -0.155139  0.002031  3.736765  0.002
N  N372  1  0.19638653  0.91715437  0.17896264  1  -0.859191  0.004188  -0.285297  -0.154322  0.002036  3.736691  0.002
N  N373  1  0.91718041  0.70761629  0.17888729  1  -0.829221  0.004114  -0.285058  -0.152829  0.002023  3.734669  0.002
N  N374  1  0.70758629  0.19635532  0.17879944  1  -0.849809  0.004163  -0.285992  -0.155071  0.002029  3.736703  0.002
N  N375  1  0.79238520  0.58281798  0.32110998  1  -0.828493  0.004115  -0.285142  -0.152986  0.002023  3.734651  0.002
N  N376  1  0.58284269  0.30361278  0.32103901  1  -0.859222  0.004191  -0.285317  -0.154262  0.002039  3.7366  0.002
N  N377  1  0.30364726  0.79241232  0.32119981  1  -0.849876  0.004165  -0.285984  -0.155072  0.002031  3.736721  0.002
N  N378  1  0.67632650  0.36721722  0.86232871  1  -0.857612  0.006157  -0.279718  -0.14775  0.00376  3.668906  0.004
N  N379  1  0.36715247  0.09402642  0.86247569  1  -0.848825  0.006147  -0.27959  -0.147585  0.003768  3.670473  0.004
N  N380  1  0.09409893  0.67632938  0.86243543  1  -0.870592  0.006169  -0.27973  -0.148245  0.003772  3.667405  0.004
N  N381  1  0.40597512  0.13284616  0.63752462  1  -0.849057  0.006147  -0.27952  -0.14758  0.003767  3.670419  0.004
N  N382  1  0.13278036  0.82367205  0.63767359  1  -0.857681  0.006159  -0.279797  -0.147843  0.003763  3.668818  0.004
N  N383  1  0.82367144  0.40590171  0.63756179  1  -0.870595  0.006168  -0.279748  -0.148281  0.003772  3.667574  0.004
N  N384  1  0.32367312  0.63277989  0.13767272  1  -0.857672  0.006159  -0.279845  -0.147886  0.003763  3.668893  0.004
N  N385  1  0.63284593  0.90597457  0.13752447  1  -0.84901  0.006149  -0.27957  -0.14752  0.003769  3.67033  0.004
N  N386  1  0.90590192  0.32367076  0.13756494  1  -0.870645  0.006167  -0.27979  -0.148307  0.003771  3.667491  0.004
N  N387  1  0.59402267  0.86715503  0.36247622  1  -0.849071  0.006152  -0.279543  -0.147571  0.003771  3.670232  0.004
N  N388  1  0.86722049  0.17632810  0.36232678  1  -0.857686  0.006158  -0.279782  -0.147762  0.003762  3.668977  0.004
N  N389  1  0.17632819  0.59409944  0.36243620  1  -0.87062  0.006169  -0.279763  -0.1483  0.003772  3.667492  0.004
O  O390  1  0.88135183  0.21011660  0.72078649  1  -1.210346  0.06095  -0.320913  -0.565104  0.04365  2.339865  0.029
O  O391  1  0.21013822  0.18775186  0.72079184  1  -1.20999  0.060876  -0.321298  -0.56581  0.043638  2.341049  0.029
O  O392  1  0.18775315  0.88135334  0.72082911  1  -1.216251  0.060929  -0.32107  -0.565444  0.043604  2.339621  0.029
O  O393  1  0.31224598  0.28986548  0.77920985  1  -1.21037  0.060889  -0.321301  -0.565768  0.043641  2.341019  0.029
O  O394  1  0.28988195  0.61865150  0.77921392  1  -1.210374  0.060939  -0.320882  -0.565051  0.043646  2.339635  0.029
O  O395  1  0.61864591  0.31225054  0.77916841  1  -1.216173  0.060922  -0.321122  -0.565481  0.043602  2.339567  0.029
O  O396  1  0.11865512  0.78987686  0.27921465  1  -1.210518  0.060915  -0.320929  -0.565121  0.043641  2.339685  0.029
O  O397  1  0.78986383  0.81224556  0.27921272  1  -1.210341  0.060891  -0.321332  -0.565883  0.043645  2.341085  0.029
O  O398  1  0.81224892  0.11864524  0.27917043  1  -1.216195  0.06092  -0.321094  -0.565446  0.043601  2.339633  0.029
O  O399  1  0.68775118  0.71013648  0.22079438  1  -1.210094  0.060871  -0.321271  -0.565805  0.043632  2.341198  0.029
O  O400  1  0.71011830  0.38135116  0.22078355  1  -1.210364  0.06095  -0.320917  -0.565078  0.043649  2.33975  0.029
O  O401  1  0.38135739  0.68775107  0.22082857  1  -1.216025  0.060917  -0.32108  -0.565476  0.043613  2.339886  0.029
O  O402  1  0.93020856  0.29347883  0.71664992  1  -1.181771  0.006911  -0.328127  -0.563496  0.004656  2.161094  0.005
O  O403  1  0.29350435  0.05970297  0.71657009  1  -1.193446  0.006932  -0.328308  -0.563613  0.004665  2.160264  0.005
O  O404  1  0.05965370  0.93021346  0.71670865  1  -1.1802  0.006899  -0.328577  -0.56399  0.004651  2.158334  0.005
O  O405  1  0.44029448  0.20649631  0.78343024  1  -1.193541  0.006934  -0.328309  -0.563626  0.004666  2.160332  0.005
O  O406  1  0.20652192  0.56979469  0.78334651  1  -1.181772  0.006912  -0.328148  -0.563635  0.004656  2.161143  0.005
O  O407  1  0.56978581  0.44035235  0.78328432  1  -1.180216  0.006897  -0.328508  -0.563986  0.004649  2.158367  0.005
O  O408  1  0.06979474  0.70651991  0.28334945  1  -1.181826  0.006908  -0.328119  -0.563602  0.004654  2.161157  0.005
O  O409  1  0.70649465  0.94029435  0.28343303  1  -1.193382  0.006933  -0.328358  -0.563678  0.004666  2.16034  0.005
O  O410  1  0.94034960  0.06978471  0.28329001  1  -1.180141  0.006896  -0.328573  -0.564024  0.004649  2.158298  0.005
O  O411  1  0.55970393  0.79350525  0.21656814  1  -1.193402  0.006931  -0.32833  -0.56363  0.004664  2.160211  0.005
O  O412  1  0.79347831  0.43020509  0.21665482  1  -1.181772  0.006914  -0.328122  -0.56358  0.004658  2.161097  0.005
O  O413  1  0.43021383  0.55964823  0.21671247  1  -1.180195  0.006903  -0.32849  -0.563943  0.004653  2.158388  0.005
