# generated using pymatgen
data_Zn2H36C53(NO)8
_symmetry_space_group_name_H-M   'P 1'
_cell_length_a   14.09016380
_cell_length_b   20.48915588
_cell_length_c   21.29582079
_cell_angle_alpha   109.49577794
_cell_angle_beta   109.32536599
_cell_angle_gamma   89.99372943
_symmetry_Int_Tables_number   1
_chemical_formula_structural   Zn2H36C53(NO)8
_chemical_formula_sum   'Zn8 H144 C212 N32 O32'
_cell_volume   5426.73642327
_cell_formula_units_Z   4
loop_
 _symmetry_equiv_pos_site_id
 _symmetry_equiv_pos_as_xyz
  1  'x, y, z'
loop_
 _atom_site_type_symbol
 _atom_site_label
 _atom_site_symmetry_multiplicity
 _atom_site_fract_x
 _atom_site_fract_y
 _atom_site_fract_z
 _atom_site_occupancy
 _atom_site_pbe_bader_charge
 _atom_site_pbe_bader_spin_density
 _atom_site_pbe_cm5_charge
 _atom_site_pbe_ddec_charge
 _atom_site_pbe_ddec_spin_density
 _atom_site_pbe_ddec_sum_bond_order
 _atom_site_pbe_magmom
Zn  Zn0  1  0.54743130  0.61583887  0.17101575  1  1.260425  0  0.696698  0.767629  0  2.411509  0
Zn  Zn1  1  0.37634148  0.88428024  0.82909199  1  1.255222  0  0.696575  0.767441  0  2.411617  0
Zn  Zn2  1  0.45256998  0.38416423  0.82898531  1  1.260447  0  0.696698  0.767664  0  2.411515  0
Zn  Zn3  1  0.62365345  0.11571862  0.17090500  1  1.25517  0  0.696545  0.767404  0  2.411577  0
Zn  Zn4  1  0.38085565  0.83825356  0.44490351  1  1.266224  0  0.706624  0.80553  0  2.438488  0
Zn  Zn5  1  0.93596438  0.66184971  0.55502728  1  1.267048  0  0.706558  0.804343  0  2.441168  0
Zn  Zn6  1  0.61914900  0.16174589  0.55509579  1  1.266298  0  0.706647  0.805529  0  2.438541  0
Zn  Zn7  1  0.06403517  0.33814868  0.44497125  1  1.267178  0  0.706554  0.804345  0  2.441177  0
H  H8  1  0.58383004  0.52464694  0.33937553  1  0.069855  0  0.104716  0.107398  0  1.000532  0
H  H9  1  0.24430446  0.97526812  0.66047138  1  0.078759  0  0.10462  0.10716  0  1.000482  0
H  H10  1  0.41617021  0.47535348  0.66062178  1  0.069882  0  0.10472  0.107386  0  1.000538  0
H  H11  1  0.75569018  0.02473186  0.33952853  1  0.078803  0  0.104638  0.107166  0  1.000477  0
H  H12  1  0.60852836  0.43894097  0.40217164  1  0.082919  0  0.096831  0.098266  0  1.035906  0
H  H13  1  0.20637160  0.06095783  0.59765313  1  0.085445  0  0.097191  0.098812  0  1.036682  0
H  H14  1  0.39147177  0.56105947  0.59782631  1  0.082874  0  0.096841  0.09829  0  1.035958  0
H  H15  1  0.79363100  0.93904471  0.40234614  1  0.085388  0  0.097226  0.098862  0  1.0367  0
H  H16  1  0.62866221  0.31609696  0.33930579  1  0.086178  0  0.100742  0.101931  0  1.026797  0
H  H17  1  0.28938150  0.18377552  0.66051166  1  0.095942  0  0.100896  0.101942  0  1.026361  0
H  H18  1  0.37133013  0.68389974  0.66068750  1  0.085961  0  0.10073  0.101918  0  1.026757  0
H  H19  1  0.71061488  0.81622711  0.33949119  1  0.095979  0  0.100896  0.101978  0  1.026263  0
H  H20  1  0.59304374  0.36300837  0.15142136  1  0.099909  0  0.101449  0.106968  0  1.023944  0
H  H21  1  0.44151678  0.13687067  0.84841488  1  0.105613  0  0.101168  0.106686  0  1.023499  0
H  H22  1  0.40694743  0.63698835  0.84857226  1  0.09997  0  0.10148  0.107027  0  1.024009  0
H  H23  1  0.55847984  0.86312362  0.15158529  1  0.105686  0  0.101146  0.106624  0  1.023501  0
H  H24  1  0.59355994  0.67544309  0.06218051  1  0.208377  0  0.143454  0.125986  0  1.008828  0
H  H25  1  0.53139237  0.82443080  0.93761078  1  0.207621  0  0.143073  0.125589  0  1.009364  0
H  H26  1  0.40644235  0.32455691  0.93782028  1  0.208394  0  0.143444  0.125941  0  1.008911  0
H  H27  1  0.46860597  0.17557019  0.06238848  1  0.207567  0  0.143107  0.125678  0  1.009333  0
H  H28  1  0.78662165  0.51784513  0.02843982  1  0.113656  0  0.119647  0.114383  0  1.02699  0
H  H29  1  0.75825130  0.98209650  0.97154673  1  0.127365  0  0.119702  0.114871  0  1.026141  0
H  H30  1  0.21337382  0.48215275  0.97155905  1  0.11362  0  0.119633  0.114375  0  1.026984  0
H  H31  1  0.24174425  0.01790816  0.02845412  1  0.12973  0  0.119697  0.114912  0  1.026065  0
H  H32  1  0.69595426  0.50469565  0.12263536  1  0.137717  0  0.127821  0.130558  0  0.992613  0
H  H33  1  0.57326059  0.99545923  0.87758900  1  0.131445  0  0.127735  0.130945  0  0.992009  0
H  H34  1  0.30404015  0.49530222  0.87736320  1  0.138012  0  0.127776  0.130552  0  0.992596  0
H  H35  1  0.42673473  0.00454126  0.12241092  1  0.131506  0  0.127758  0.131002  0  0.991924  0
H  H36  1  0.56557864  0.64749370  0.93557233  1  0.132999  0  0.115966  0.129937  0  1.003134  0
H  H37  1  0.63003982  0.85221739  0.06417822  1  0.140957  0  0.11616  0.130817  0  1.002404  0
H  H38  1  0.43441713  0.35250529  0.06442929  1  0.132741  0  0.115945  0.129953  0  1.003163  0
H  H39  1  0.36996254  0.14778511  0.93581930  1  0.140959  0  0.116132  0.13078  0  1.002426  0
H  H40  1  0.59620844  0.67633752  0.84028585  1  0.102506  0  0.103275  0.106985  0  1.044355  0
H  H41  1  0.75578840  0.82347046  0.15954123  1  0.084342  0  0.103533  0.107347  0  1.043441  0
H  H42  1  0.40379150  0.32366043  0.15971601  1  0.10246  0  0.103256  0.107004  0  1.044327  0
H  H43  1  0.24421091  0.17653208  0.84045776  1  0.084213  0  0.103566  0.10733  0  1.043371  0
H  H44  1  0.90462571  0.63227176  0.91236999  1  0.046739  0  0.101008  0.101266  0  1.005811  0
H  H45  1  0.99232744  0.86772841  0.08770001  1  0.07408  0  0.100536  0.100724  0  1.00634  0
H  H46  1  0.09537599  0.36772824  0.08763096  1  0.046755  0  0.101035  0.101306  0  1.005811  0
H  H47  1  0.00767358  0.13227314  0.91230052  1  0.074106  0  0.100547  0.100802  0  1.006294  0
H  H48  1  0.87531370  0.60700886  0.01089416  1  0.059172  0  0.102124  0.103405  0  1.018435  0
H  H49  1  0.86458704  0.89287341  0.98908571  1  0.073459  0  0.102098  0.103605  0  1.017911  0
H  H50  1  0.12468441  0.39299217  0.98910638  1  0.059196  0  0.102126  0.103392  0  1.018415  0
H  H51  1  0.13541786  0.10712814  0.01091494  1  0.073704  0  0.10214  0.1036  0  1.017886  0
H  H52  1  0.68651983  0.78047722  0.84566853  1  0.019349  0  0.095964  0.094366  0  1.028775  0
H  H53  1  0.84107692  0.71944111  0.15431862  1  0.021254  0  0.095976  0.094247  0  1.028108  0
H  H54  1  0.31348098  0.21952175  0.15433287  1  0.019391  0  0.095966  0.094365  0  1.028795  0
H  H55  1  0.15892227  0.28056145  0.84568101  1  0.021255  0  0.095969  0.094225  0  1.02816  0
H  H56  1  0.57044465  0.83840710  0.77232585  1  0.086674  0  0.103487  0.107821  0  1.030998  0
H  H57  1  0.79815054  0.66153869  0.22767311  1  0.11999  0  0.103743  0.107935  0  1.030677  0
H  H58  1  0.42955655  0.16159343  0.22767544  1  0.086673  0  0.103478  0.107813  0  1.031036  0
H  H59  1  0.20184450  0.33846222  0.77232283  1  0.120018  0  0.103772  0.107954  0  1.030663  0
H  H60  1  0.56062345  0.66928824  0.58262376  1  0.118102  0  0.114867  0.125549  0  0.996717  0
H  H61  1  0.97769352  0.83075472  0.41731250  1  0.061831  0  0.114571  0.125006  0  0.995967  0
H  H62  1  0.43938007  0.33071281  0.41737768  1  0.118082  0  0.11485  0.125562  0  0.996633  0
H  H63  1  0.02230502  0.16924259  0.58268409  1  0.061743  0  0.114535  0.125007  0  0.995999  0
H  H64  1  0.67611046  0.61261170  0.65477597  1  0.099625  0  0.103408  0.109515  0  1.040417  0
H  H65  1  0.02117101  0.88747682  0.34520199  1  0.112252  0  0.103529  0.110007  0  1.040185  0
H  H66  1  0.32388923  0.38738827  0.34522373  1  0.099737  0  0.103415  0.109524  0  1.040411  0
H  H67  1  0.97882806  0.11252156  0.65479606  1  0.112196  0  0.103585  0.110052  0  1.040223  0
H  H68  1  0.54669327  0.76903841  0.54151804  1  0.206821  0  0.135311  0.115943  0  1.042934  0
H  H69  1  0.00510554  0.73105864  0.45839202  1  0.199336  0  0.135371  0.11543  0  1.04293  0
H  H70  1  0.45330849  0.23096265  0.45848390  1  0.206845  0  0.135303  0.115891  0  1.042855  0
H  H71  1  0.99489084  0.26893980  0.54160862  1  0.199568  0  0.1354  0.115438  0  1.042988  0
H  H72  1  0.30961019  0.88238810  0.58176452  1  0.138421  0  0.126885  0.125774  0  0.992282  0
H  H73  1  0.72779031  0.61759470  0.41806545  1  0.121738  0  0.127177  0.126214  0  0.992927  0
H  H74  1  0.69039582  0.11761657  0.41823701  1  0.138329  0  0.126849  0.12574  0  0.992259  0
H  H75  1  0.27220656  0.38240939  0.58193361  1  0.121946  0  0.127185  0.1262  0  0.992883  0
H  H76  1  0.39644417  0.83258993  0.69178851  1  0.19247  0  0.125208  0.141827  0  1.051652  0
H  H77  1  0.70460670  0.66751699  0.30815296  1  0.182352  0  0.125327  0.14191  0  1.050923  0
H  H78  1  0.60355788  0.16741215  0.30821314  1  0.19244  0  0.125241  0.141852  0  1.051686  0
H  H79  1  0.29538655  0.33248241  0.69184471  1  0.18223  0  0.12534  0.141966  0  1.050947  0
H  H80  1  0.22671718  0.78378957  0.84743351  1  0.217822  0  0.143971  0.124161  0  0.999183  0
H  H81  1  0.37950631  0.71625129  0.15250275  1  0.190345  0  0.143833  0.124208  0  0.999  0
H  H82  1  0.77328376  0.21620946  0.15257029  1  0.217615  0  0.143955  0.124227  0  0.999168  0
H  H83  1  0.62049098  0.28374764  0.84749661  1  0.190395  0  0.143819  0.124233  0  0.998964  0
H  H84  1  0.04183340  0.94713478  0.87528955  1  0.125784  0  0.121296  0.122163  0  1.009805  0
H  H85  1  0.16683578  0.55291776  0.12469370  1  0.130966  0  0.120988  0.121815  0  1.010274  0
H  H86  1  0.95816540  0.05286264  0.12471182  1  0.126244  0  0.121277  0.122127  0  1.009819  0
H  H87  1  0.83316199  0.44708126  0.87530917  1  0.13098  0  0.120978  0.121824  0  1.010303  0
H  H88  1  0.22839368  0.99789368  0.87788603  1  0.177994  0  0.12023  0.120832  0  1.024141  0
H  H89  1  0.35084634  0.50214870  0.12199830  1  0.1727  0  0.12021  0.121306  0  1.023838  0
H  H90  1  0.77160331  0.00210628  0.12211321  1  0.177978  0  0.120218  0.120801  0  1.024199  0
H  H91  1  0.64914964  0.49785079  0.87800285  1  0.172775  0  0.120217  0.121247  0  1.023909  0
H  H92  1  0.01682504  0.85250810  0.95120558  1  0.099986  0  0.103352  0.109721  0  1.000783  0
H  H93  1  0.06596751  0.64767624  0.04880007  1  0.067131  0  0.103031  0.109848  0  1.000488  0
H  H94  1  0.98317812  0.14749086  0.04879516  1  0.100003  0  0.103364  0.109723  0  1.000749  0
H  H95  1  0.93403181  0.35232431  0.95120236  1  0.067082  0  0.10306  0.109928  0  1.00048  0
H  H96  1  0.87255069  0.76692298  0.92676070  1  0.051911  0  0.094661  0.093386  0  1.056233  0
H  H97  1  0.94606004  0.73313529  0.07320943  1  0.057246  0  0.095184  0.094044  0  1.05659  0
H  H98  1  0.12744754  0.23308016  0.07324183  1  0.051942  0  0.094619  0.093327  0  1.056334  0
H  H99  1  0.05394066  0.26686576  0.92679220  1  0.057317  0  0.095194  0.094072  0  1.056565  0
H  H100  1  0.88031779  0.65900468  0.71682743  1  0.097871  0  0.113904  0.12371  0  0.988002  0
H  H101  1  0.16367513  0.84094303  0.28332245  1  0.101861  0  0.113848  0.12367  0  0.987928  0
H  H102  1  0.11968162  0.34099426  0.28317255  1  0.097836  0  0.113916  0.123746  0  0.987993  0
H  H103  1  0.83632070  0.15905838  0.71667287  1  0.101868  0  0.113865  0.123658  0  0.987822  0
H  H104  1  0.02721288  0.74220236  0.74292384  1  0.113902  0  0.113755  0.123448  0  1.000352  0
H  H105  1  0.28439447  0.75776457  0.25724494  1  0.092929  0  0.113742  0.123503  0  1.001372  0
H  H106  1  0.97278777  0.25779557  0.25707721  1  0.113883  0  0.113763  0.12345  0  1.000356  0
H  H107  1  0.71560117  0.24223641  0.74275387  1  0.093056  0  0.113784  0.123532  0  1.001397  0
H  H108  1  0.61053174  0.55601607  0.73331204  1  0.092863  0  0.103534  0.105406  0  1.031761  0
H  H109  1  0.87731695  0.94401328  0.26668592  1  0.082454  0  0.10333  0.105393  0  1.032219  0
H  H110  1  0.38947011  0.44398345  0.26669048  1  0.092978  0  0.103527  0.105399  0  1.031735  0
H  H111  1  0.12268599  0.05598991  0.73331831  1  0.082324  0  0.103365  0.105523  0  1.032209  0
H  H112  1  0.60824974  0.43051029  0.68069743  1  0.083314  0  0.114949  0.12388  0  0.992112  0
H  H113  1  0.92759701  0.06955090  0.31913982  1  0.081027  0  0.114741  0.123528  0  0.993524  0
H  H114  1  0.39175137  0.56948766  0.31930410  1  0.083375  0  0.114909  0.12384  0  0.992163  0
H  H115  1  0.07240767  0.93045075  0.68086514  1  0.080824  0  0.114771  0.123603  0  0.99348  0
H  H116  1  0.93303513  0.45982751  0.73331473  1  0.065221  0  0.109018  0.11526  0  1.000993  0
H  H117  1  0.19974641  0.04011138  0.26652152  1  0.056687  0  0.109341  0.115786  0  1.000689  0
H  H118  1  0.06696833  0.54017453  0.26668532  1  0.065218  0  0.109042  0.115295  0  1.001026  0
H  H119  1  0.80025003  0.95988804  0.73347707  1  0.05669  0  0.10931  0.115749  0  1.000635  0
H  H120  1  0.93399568  0.58536841  0.78584321  1  0.074141  0  0.101773  0.103144  0  1.017262  0
H  H121  1  0.14817171  0.91458646  0.21418060  1  0.087348  0  0.101637  0.103198  0  1.016964  0
H  H122  1  0.06600229  0.41463522  0.21415838  1  0.074099  0  0.101748  0.103107  0  1.017182  0
H  H123  1  0.85182610  0.08541346  0.78581720  1  0.085062  0  0.101638  0.103204  0  1.016983  0
H  H124  1  0.61298634  0.32167055  0.64439443  1  0.185147  0  0.144163  0.114797  0  0.998895  0
H  H125  1  0.96861415  0.17833573  0.35567528  1  0.180066  0  0.144216  0.115256  0  0.997445  0
H  H126  1  0.38701706  0.67832632  0.35560544  1  0.185059  0  0.144177  0.114841  0  0.99892  0
H  H127  1  0.03138593  0.82166167  0.64432512  1  0.180034  0  0.144174  0.115237  0  0.99747  0
H  H128  1  0.85388486  0.21471726  0.60522709  1  0.211338  0  0.119528  0.123993  0  1.049119  0
H  H129  1  0.24867766  0.28520140  0.39477943  1  0.192399  0  0.119496  0.123713  0  1.049318  0
H  H130  1  0.14611945  0.78528429  0.39477373  1  0.211399  0  0.11952  0.123978  0  1.049085  0
H  H131  1  0.75132238  0.71480065  0.60522097  1  0.192077  0  0.119493  0.123711  0  1.049339  0
H  H132  1  0.92608154  0.35638700  0.67505148  1  0.144024  0  0.125386  0.12373  0  1.01088  0
H  H133  1  0.25088218  0.14352341  0.32472902  1  0.128292  0  0.125477  0.123539  0  1.011237  0
H  H134  1  0.07392312  0.64361245  0.32494782  1  0.144121  0  0.125391  0.123747  0  1.010892  0
H  H135  1  0.74911706  0.85647662  0.67527323  1  0.12827  0  0.125472  0.123536  0  1.011224  0
H  H136  1  0.07276670  0.00944792  0.44133744  1  0.059545  0  0.099618  0.102095  0  1.006498  0
H  H137  1  0.63158193  0.49077501  0.55848240  1  0.04615  0  0.099631  0.102182  0  1.006382  0
H  H138  1  0.92723441  0.99055414  0.55866327  1  0.059462  0  0.099588  0.102049  0  1.006543  0
H  H139  1  0.36842064  0.50922457  0.44152235  1  0.046122  0  0.09965  0.102274  0  1.006297  0
H  H140  1  0.06473972  0.13785773  0.47445929  1  0.056276  0  0.094954  0.089833  0  1.017721  0
H  H141  1  0.59030136  0.36230986  0.52542998  1  0.047304  0  0.095112  0.090022  0  1.017627  0
H  H142  1  0.93526568  0.86214542  0.52554364  1  0.056175  0  0.094925  0.089793  0  1.017761  0
H  H143  1  0.40969671  0.63768957  0.47456876  1  0.04732  0  0.095129  0.09005  0  1.017598  0
H  H144  1  0.22515593  0.22018867  0.52536098  1  0.105726  0  0.096458  0.094652  0  1.059509  0
H  H145  1  0.69983151  0.27993413  0.47456657  1  0.088461  0  0.096586  0.094431  0  1.058693  0
H  H146  1  0.77484682  0.77981126  0.47463724  1  0.106183  0  0.096484  0.094656  0  1.059516  0
H  H147  1  0.30015762  0.72006515  0.52542619  1  0.088414  0  0.096594  0.094466  0  1.058662  0
H  H148  1  0.39732635  0.04647559  0.50965542  1  0.131287  0  0.108938  0.123592  0  1.002916  0
H  H149  1  0.88802951  0.45354163  0.49044092  1  0.145077  0  0.108924  0.123988  0  1.002809  0
H  H150  1  0.60267516  0.95352543  0.49034477  1  0.130735  0  0.108945  0.12359  0  1.002877  0
H  H151  1  0.11197391  0.54645745  0.50956461  1  0.145232  0  0.108915  0.123988  0  1.002825  0
C  C152  1  0.56507285  0.49823227  0.20106594  1  1.532695  0  0.190159  0.550457  0  4.241999  0
C  C153  1  0.36392345  0.00168475  0.79880676  1  1.547294  0  0.190232  0.549121  0  4.241273  0
C  C154  1  0.43492049  0.50176552  0.79892928  1  1.532356  0  0.190051  0.550297  0  4.242176  0
C  C155  1  0.63607284  0.99831299  0.20118792  1  1.547218  0  0.190277  0.549135  0  4.241294  0
C  C156  1  0.58609346  0.44920214  0.24131132  1  -0.095624  0  -0.025864  -0.042913  0  4.003372  0
C  C157  1  0.34460808  0.05072917  0.75855608  1  -0.091675  0  -0.026468  -0.043835  0  4.004503  0
C  C158  1  0.41390323  0.55079671  0.75868518  1  -0.09545  0  -0.025802  -0.042792  0  4.003448  0
C  C159  1  0.65539204  0.94926708  0.24143966  1  -0.091558  0  -0.026514  -0.043997  0  4.004666  0
C  C160  1  0.59166130  0.47049052  0.31242628  1  -0.024359  0  -0.081625  -0.09127  0  3.962735  0
C  C161  1  0.27907391  0.02943021  0.68742724  1  -0.008207  0  -0.080967  -0.09007  0  3.962904  0
C  C162  1  0.40833966  0.52950783  0.68757063  1  -0.024275  0  -0.081691  -0.091292  0  3.962613  0
C  C163  1  0.72092613  0.97056757  0.31256791  1  -0.008082  0  -0.080953  -0.089949  0  3.962885  0
C  C164  1  0.60565468  0.42255206  0.34731926  1  0.008699  0  -0.091805  -0.083279  0  3.995047  0
C  C165  1  0.25829211  0.07734335  0.65250691  1  -0.045064  0  -0.092031  -0.084316  0  3.997366  0
C  C166  1  0.39434801  0.57744681  0.65267797  1  0.008689  0  -0.09184  -0.083426  0  3.995103  0
C  C167  1  0.74171351  0.92265764  0.34749211  1  -0.045231  0  -0.092019  -0.084383  0  3.997531  0
C  C168  1  0.61651201  0.35358905  0.31221471  1  -0.055754  0  -0.076281  -0.067388  0  3.930307  0
C  C169  1  0.30430083  0.14628565  0.68761181  1  -0.053173  0  -0.076455  -0.066455  0  3.930658  0
C  C170  1  0.38348363  0.64640774  0.68778189  1  -0.055914  0  -0.076176  -0.067182  0  3.930297  0
C  C171  1  0.69570309  0.85371641  0.31238870  1  -0.053018  0  -0.076477  -0.066397  0  3.930755  0
C  C172  1  0.61226702  0.33197057  0.24150847  1  -0.05184  0  -0.024979  -0.043227  0  3.983861  0
C  C173  1  0.37068031  0.16791115  0.75833687  1  -0.060888  0  -0.024981  -0.044555  0  3.983271  0
C  C174  1  0.38773087  0.66802773  0.75848688  1  -0.052168  0  -0.024973  -0.043149  0  3.98388  0
C  C175  1  0.62932485  0.83209195  0.24166431  1  -0.060865  0  -0.025023  -0.044764  0  3.983563  0
C  C176  1  0.59697772  0.38008481  0.20654928  1  -0.030188  0  -0.082607  -0.11711  0  3.962384  0
C  C177  1  0.39025576  0.11982245  0.79332894  1  -0.020819  0  -0.082732  -0.116502  0  3.959894  0
C  C178  1  0.40301956  0.61991404  0.79344705  1  -0.029523  0  -0.082662  -0.117271  0  3.962645  0
C  C179  1  0.60974419  0.88017481  0.20666604  1  -0.020852  0  -0.082695  -0.116308  0  3.960002  0
C  C180  1  0.61966046  0.25775821  0.20103344  1  1.558191  0  0.19478  0.55714  0  4.23309  0
C  C181  1  0.41862146  0.24211229  0.79881713  1  1.563202  0  0.194868  0.558791  0  4.232041  0
C  C182  1  0.38033723  0.74224378  0.79896459  1  1.55789  0  0.19463  0.556941  0  4.23356  0
C  C183  1  0.58138185  0.75788825  0.20118478  1  1.562959  0  0.194856  0.558776  0  4.232026  0
C  C184  1  0.63318467  0.63055362  0.06532156  1  0.959635  0  0.158465  0.117988  0  3.844537  0
C  C185  1  0.56792357  0.86937572  0.93459950  1  0.956726  0  0.158508  0.117921  0  3.845052  0
C  C186  1  0.36681711  0.36944690  0.93467957  1  0.95973  0  0.158417  0.117931  0  3.844581  0
C  C187  1  0.43207638  0.13062574  0.06539769  1  0.957189  0  0.158513  0.117912  0  3.845086  0
C  C188  1  0.73644978  0.54921460  0.05139481  1  0.255972  0  -0.002474  -0.110858  0  3.935156  0
C  C189  1  0.68509344  0.95076958  0.94862619  1  0.274428  0  -0.002936  -0.112428  0  3.934732  0
C  C190  1  0.26355034  0.45078439  0.94860740  1  0.255922  0  -0.002423  -0.110846  0  3.935055  0
C  C191  1  0.31490448  0.04923238  0.05137056  1  0.272197  0  -0.002895  -0.11239  0  3.934904  0
C  C192  1  0.69096833  0.54304525  0.09722052  1  0.452547  0  0.006063  -0.019344  0  3.983569  0
C  C193  1  0.59373875  0.95702828  0.90289121  1  0.435648  0  0.006275  -0.019291  0  3.982471  0
C  C194  1  0.30903273  0.45695583  0.90278223  1  0.452276  0  0.006073  -0.019421  0  3.983588  0
C  C195  1  0.40625856  0.04297423  0.09710652  1  0.435729  0  0.006283  -0.019266  0  3.982489  0
C  C196  1  0.71884210  0.62664935  0.97975422  1  0.269206  0  0.091887  0.154903  0  4.037268  0
C  C197  1  0.73921726  0.87328011  0.02016688  1  0.234783  0  0.091477  0.154746  0  4.036558  0
C  C198  1  0.28115557  0.37334906  0.02024544  1  0.269175  0  0.09194  0.154921  0  4.037233  0
C  C199  1  0.26078599  0.12672563  0.97983584  1  0.234961  0  0.09153  0.154969  0  4.0366  0
C  C200  1  0.64144101  0.64798500  0.93301617  1  0.016045  0  -0.079908  -0.141256  0  3.95257  0
C  C201  1  0.70850584  0.85188020  0.06684223  1  -0.031808  0  -0.079841  -0.142829  0  3.952967  0
C  C202  1  0.35855604  0.35201396  0.06698447  1  0.015989  0  -0.079845  -0.141159  0  3.952497  0
C  C203  1  0.29149576  0.14812553  0.93316035  1  -0.031889  0  -0.079811  -0.142888  0  3.952973  0
C  C204  1  0.65906645  0.66325541  0.87838920  1  -0.061299  0  -0.086098  -0.113399  0  3.960433  0
C  C205  1  0.78070144  0.83665581  0.12154750  1  0.022996  0  -0.086196  -0.113117  0  3.958935  0
C  C206  1  0.34093238  0.33674147  0.12161135  1  -0.060841  0  -0.086148  -0.113569  0  3.960552  0
C  C207  1  0.21929851  0.16334778  0.87845231  1  0.023313  0  -0.086246  -0.113035  0  3.958823  0
C  C208  1  0.75280844  0.65696922  0.86931988  1  -0.056227  0  -0.004827  0.061051  0  3.917121  0
C  C209  1  0.88353036  0.84302963  0.13071932  1  -0.00697  0  -0.004306  0.060908  0  3.91568  0
C  C210  1  0.24719270  0.34302818  0.13068082  1  -0.054214  0  -0.004843  0.06101  0  3.917154  0
C  C211  1  0.11646712  0.15697392  0.86927876  1  -0.006711  0  -0.004276  0.060886  0  3.915696  0
C  C212  1  0.83081425  0.63754548  0.91850249  1  -0.039613  0  -0.092952  -0.120517  0  3.996626  0
C  C213  1  0.91239011  0.86246841  0.08157361  1  -0.097976  0  -0.092427  -0.119267  0  3.996316  0
C  C214  1  0.16918829  0.36245189  0.08149660  1  -0.041445  0  -0.092961  -0.120558  0  3.996627  0
C  C215  1  0.08761135  0.13753574  0.91842780  1  -0.098113  0  -0.092455  -0.119479  0  3.996335  0
C  C216  1  0.81466759  0.62267787  0.97345668  1  0.01626  0  -0.097492  -0.173505  0  4.023094  0
C  C217  1  0.84137284  0.87732395  0.02657813  1  -0.014698  0  -0.09745  -0.173945  0  4.022111  0
C  C218  1  0.18533145  0.37732104  0.02654219  1  0.015996  0  -0.097508  -0.173513  0  4.023131  0
C  C219  1  0.15863120  0.12268228  0.97342396  1  -0.015097  0  -0.097575  -0.173927  0  4.022158  0
C  C220  1  0.76960882  0.65892547  0.80211268  1  0.041517  0  0.015259  0.004783  0  3.796835  0
C  C221  1  0.96757822  0.84105351  0.19792575  1  0.05686  0  0.014789  0.005595  0  3.796759  0
C  C222  1  0.23039176  0.34107140  0.19788737  1  0.041259  0  0.015312  0.004985  0  3.796592  0
C  C223  1  0.03242145  0.15894700  0.80207476  1  0.056972  0  0.014759  0.005526  0  3.796806  0
C  C224  1  0.68763875  0.69049532  0.75640739  1  -0.084193  0  -0.007034  0.055525  0  3.910632  0
C  C225  1  0.93127050  0.80949863  0.24360245  1  -0.089217  0  -0.007042  0.053238  0  3.913691  0
C  C226  1  0.31235936  0.30950365  0.24359357  1  -0.083904  0  -0.007028  0.055556  0  3.9105  0
C  C227  1  0.06872767  0.19050131  0.75639646  1  -0.089127  0  -0.007041  0.053247  0  3.913591  0
C  C228  1  0.65743180  0.75491814  0.78798202  1  -0.00572  0  -0.093052  -0.119701  0  3.997573  0
C  C229  1  0.86954252  0.74503843  0.21200349  1  0.029829  0  -0.092547  -0.117798  0  3.995114  0
C  C230  1  0.34256620  0.24508084  0.21201957  1  -0.005772  0  -0.093046  -0.119683  0  3.997617  0
C  C231  1  0.13045882  0.25496154  0.78799634  1  0.029478  0  -0.09255  -0.117791  0  3.994964  0
C  C232  1  0.59280999  0.78835356  0.74695392  1  0.059568  0  -0.090544  -0.155577  0  3.989699  0
C  C233  1  0.84588779  0.71159218  0.25299681  1  -0.014719  0  -0.091113  -0.156403  0  3.988984  0
C  C234  1  0.40719004  0.21164491  0.25304811  1  0.059549  0  -0.090499  -0.15556  0  3.989776  0
C  C235  1  0.15411328  0.28840829  0.74700208  1  -0.014319  0  -0.091132  -0.156414  0  3.988818  0
C  C236  1  0.55768702  0.75766001  0.67272532  1  0.224156  0  0.095778  0.162696  0  4.019603  0
C  C237  1  0.88492754  0.74234168  0.32721287  1  0.196174  0  0.09594  0.162891  0  4.021085  0
C  C238  1  0.44231087  0.24233899  0.32727691  1  0.224136  0  0.095791  0.162674  0  4.019879  0
C  C239  1  0.11507194  0.25765770  0.67278426  1  0.196328  0  0.09596  0.162887  0  4.021252  0
C  C240  1  0.58731983  0.69393464  0.64031538  1  0.009384  0  -0.080476  -0.145042  0  3.956407  0
C  C241  1  0.94685750  0.80609827  0.35962810  1  0.039457  0  -0.080512  -0.144777  0  3.955811  0
C  C242  1  0.41267790  0.30606484  0.35968528  1  0.009371  0  -0.08048  -0.145094  0  3.956524  0
C  C243  1  0.05313917  0.19389906  0.64036962  1  0.03941  0  -0.080431  -0.144771  0  3.955772  0
C  C244  1  0.65219432  0.66111708  0.68211891  1  0.00467  0  -0.084349  -0.109869  0  3.968106  0
C  C245  1  0.96998941  0.83894109  0.31787739  1  0.045177  0  -0.084214  -0.109438  0  3.969679  0
C  C246  1  0.34780477  0.33888137  0.31788218  1  0.004528  0  -0.084369  -0.109875  0  3.968119  0
C  C247  1  0.03000908  0.16105729  0.68212083  1  0.04519  0  -0.084242  -0.109415  0  3.969785  0
C  C248  1  0.49429586  0.79353611  0.56733044  1  0.909934  0  0.139304  0.081533  0  3.887646  0
C  C249  1  0.92691464  0.70650045  0.43261326  1  0.936012  0  0.139507  0.082448  0  3.888256  0
C  C250  1  0.50570680  0.20646543  0.43267023  1  0.909911  0  0.139305  0.081575  0  3.887557  0
C  C251  1  0.07308299  0.29349424  0.56738197  1  0.935793  0  0.139463  0.082385  0  3.888464  0
C  C252  1  0.37353924  0.85305590  0.59101804  1  0.425847  0  0.009371  -0.012432  0  3.96342  0
C  C253  1  0.78248902  0.64693141  0.40885467  1  0.410511  0  0.008379  -0.013516  0  3.964966  0
C  C254  1  0.62646298  0.14694929  0.40898355  1  0.425659  0  0.009417  -0.012475  0  3.963658  0
C  C255  1  0.21750894  0.35306590  0.59114208  1  0.410407  0  0.008364  -0.013404  0  3.964795  0
C  C256  1  0.41621764  0.82966121  0.64610497  1  0.265451  0  0.008247  -0.087474  0  3.870178  0
C  C257  1  0.77008920  0.67035442  0.35379615  1  0.309412  0  0.00864  -0.087556  0  3.871074  0
C  C258  1  0.58378531  0.17034136  0.35389542  1  0.265363  0  0.008238  -0.087383  0  3.870024  0
C  C259  1  0.22990685  0.32964132  0.64619993  1  0.309804  0  0.008691  -0.087639  0  3.871146  0
C  C260  1  0.20191025  0.83508937  0.85467747  1  0.945052  0  0.154721  0.111828  0  3.870359  0
C  C261  1  0.34744578  0.66498200  0.14527824  1  0.968363  0  0.154315  0.111198  0  3.869662  0
C  C262  1  0.79809196  0.16491018  0.14532617  1  0.945331  0  0.154705  0.111701  0  3.870402  0
C  C263  1  0.65255369  0.33501808  0.85472576  1  0.96879  0  0.154353  0.111191  0  3.869514  0
C  C264  1  0.10871218  0.92231517  0.87180634  1  0.227276  0  -0.006325  -0.122031  0  3.933581  0
C  C265  1  0.23720090  0.57773816  0.12819490  1  0.247392  0  -0.005923  -0.121583  0  3.932511  0
C  C266  1  0.89128608  0.07768118  0.12819357  1  0.227012  0  -0.006214  -0.121889  0  3.933641  0
C  C267  1  0.76279817  0.42226297  0.87180963  1  0.205986  0  -0.005929  -0.121666  0  3.932578  0
C  C268  1  0.19987728  0.94628775  0.87204879  1  0.435361  0  0.003929  -0.017856  0  3.98612  0
C  C269  1  0.32809268  0.55375631  0.12784620  1  0.4086  0  0.003599  -0.019332  0  3.984401  0
C  C270  1  0.80012163  0.05371172  0.12795153  1  0.435223  0  0.003946  -0.017825  0  3.986219  0
C  C271  1  0.67190620  0.44624369  0.87215494  1  0.45  0  0.003668  -0.01913  0  3.984383  0
C  C272  1  0.02959563  0.80232571  0.84826212  1  0.268948  0  0.086996  0.155431  0  4.041452  0
C  C273  1  0.18157247  0.69771372  0.15184023  1  0.26056  0  0.086396  0.155153  0  4.04247  0
C  C274  1  0.97040834  0.19767177  0.15174143  1  0.269445  0  0.087109  0.155599  0  4.041346  0
C  C275  1  0.81842569  0.30228479  0.84816294  1  0.260732  0  0.086407  0.155302  0  4.042336  0
C  C276  1  0.98637912  0.80978644  0.90006222  1  -0.066148  0  -0.096871  -0.167435  0  4.017221  0
C  C277  1  0.08660666  0.69031570  0.10000804  1  -0.014254  0  -0.096589  -0.168576  0  4.019684  0
C  C278  1  0.01362526  0.19021204  0.09994040  1  -0.066636  0  -0.09693  -0.167527  0  4.017111  0
C  C279  1  0.91339334  0.30968331  0.89999481  1  -0.014304  0  -0.096633  -0.168736  0  4.019547  0
C  C280  1  0.90578697  0.76133248  0.88605064  1  0.001852  0  -0.095868  -0.128183  0  4.007331  0
C  C281  1  0.01996674  0.73873831  0.11396796  1  -0.000403  0  -0.096331  -0.127864  0  4.008282  0
C  C282  1  0.09421432  0.23866650  0.11395124  1  0.001884  0  -0.095769  -0.127944  0  4.007265  0
C  C283  1  0.98003385  0.26126070  0.88603472  1  -0.000298  0  -0.096283  -0.127776  0  4.008159  0
C  C284  1  0.86689852  0.70608797  0.82061546  1  -0.086199  0  -0.001651  0.064811  0  3.911368  0
C  C285  1  0.04640987  0.79391743  0.17944208  1  -0.040178  0  -0.001467  0.064061  0  3.911723  0
C  C286  1  0.13310154  0.29390997  0.17938576  1  -0.086033  0  -0.001656  0.064707  0  3.911456  0
C  C287  1  0.95358725  0.20608259  0.82055956  1  -0.040191  0  -0.001538  0.06393  0  3.911519  0
C  C288  1  0.91122880  0.69992665  0.76912497  1  -0.018634  0  -0.078927  -0.101747  0  3.953242  0
C  C289  1  0.14222329  0.80006669  0.23097798  1  -0.055019  0  -0.078957  -0.10178  0  3.952379  0
C  C290  1  0.08877385  0.30006925  0.23087775  1  -0.01856  0  -0.078972  -0.1018  0  3.953413  0
C  C291  1  0.85777224  0.19993225  0.76902188  1  -0.054404  0  -0.078974  -0.101709  0  3.952093  0
C  C292  1  0.99322240  0.74699730  0.78312647  1  0.016525  0  -0.083844  -0.15043  0  3.968941  0
C  C293  1  0.21024414  0.75300079  0.21700198  1  0.01543  0  -0.083312  -0.149892  0  3.96938  0
C  C294  1  0.00678187  0.25299914  0.21687720  1  0.016279  0  -0.083914  -0.150547  0  3.969154  0
C  C295  1  0.78975077  0.24699869  0.78299886  1  0.014358  0  -0.083316  -0.149984  0  3.969478  0
C  C296  1  0.77214318  0.58109750  0.76269137  1  -0.02823  0  -0.005217  0.058027  0  3.919909  0
C  C297  1  0.00953912  0.91888151  0.23732350  1  -0.046678  0  -0.004836  0.058452  0  3.91866  0
C  C298  1  0.22785640  0.41890249  0.23730897  1  -0.028247  0  -0.005234  0.057934  0  3.919865  0
C  C299  1  0.99045982  0.08111742  0.76267601  1  -0.046741  0  -0.004808  0.058594  0  3.918527  0
C  C300  1  0.68174179  0.53537942  0.73304012  1  -0.054763  0  -0.082106  -0.102142  0  3.964271  0
C  C301  1  0.94877951  0.96461280  0.26693440  1  -0.034927  0  -0.082017  -0.101957  0  3.965997  0
C  C302  1  0.31825739  0.46461955  0.26696114  1  -0.054797  0  -0.082123  -0.102156  0  3.96421  0
C  C303  1  0.05122342  0.03538825  0.73306721  1  -0.034781  0  -0.082076  -0.102132  0  3.966172  0
C  C304  1  0.68036307  0.46375310  0.70339638  1  0.054804  0  -0.085321  -0.160443  0  3.981432  0
C  C305  1  0.97702457  0.03623824  0.29651250  1  0.080782  0  -0.085369  -0.161238  0  3.982513  0
C  C306  1  0.31963919  0.53624537  0.29660563  1  0.054653  0  -0.085274  -0.160384  0  3.981342  0
C  C307  1  0.02297883  0.96376282  0.70348958  1  0.080984  0  -0.085329  -0.161248  0  3.98245  0
C  C308  1  0.77089433  0.43556464  0.70310289  1  0.272752  0  0.095456  0.164752  0  4.033957  0
C  C309  1  0.06784177  0.06442300  0.29680522  1  0.260473  0  0.095757  0.165984  0  4.031876  0
C  C310  1  0.22910754  0.56443434  0.29689882  1  0.272783  0  0.095484  0.164784  0  4.033932  0
C  C311  1  0.93215928  0.93557800  0.70319449  1  0.260586  0  0.095711  0.165934  0  4.031675  0
C  C312  1  0.86163571  0.48017625  0.73303709  1  -0.038901  0  -0.093462  -0.164628  0  3.995698  0
C  C313  1  0.12869358  0.01981812  0.26691528  1  -0.039963  0  -0.093233  -0.164856  0  3.99552  0
C  C314  1  0.13836329  0.51982374  0.26696341  1  -0.038912  0  -0.093531  -0.164743  0  3.995729  0
C  C315  1  0.87130411  0.98018387  0.73308275  1  -0.040203  0  -0.093186  -0.1648  0  3.995322  0
C  C316  1  0.86184969  0.55207465  0.76259811  1  -0.026749  0  -0.092038  -0.123088  0  4.012883  0
C  C317  1  0.09931624  0.94792442  0.23742527  1  -0.027171  0  -0.092819  -0.124323  0  4.01241  0
C  C318  1  0.13815056  0.44792585  0.23740223  1  -0.026697  0  -0.09203  -0.12303  0  4.012834  0
C  C319  1  0.90068057  0.05207655  0.76257321  1  -0.024754  0  -0.092876  -0.124411  0  4.012398  0
C  C320  1  0.68885827  0.31249793  0.64435808  1  0.960748  0  0.152065  0.09687  0  3.897897  0
C  C321  1  0.04446976  0.18746530  0.35559452  1  0.969606  0  0.151694  0.096045  0  3.898329  0
C  C322  1  0.31114680  0.68750260  0.35564333  1  0.960519  0  0.151992  0.096761  0  3.897935  0
C  C323  1  0.95553082  0.81253363  0.64440513  1  0.969617  0  0.151854  0.096135  0  3.898266  0
C  C324  1  0.81670897  0.25930310  0.62519208  1  0.324276  0  0.009115  -0.012171  0  3.969576  0
C  C325  1  0.19148969  0.24063971  0.37478608  1  0.381079  0  0.009552  -0.012107  0  3.971517  0
C  C326  1  0.18329705  0.74069745  0.37481028  1  0.324413  0  0.009102  -0.012157  0  3.969654  0
C  C327  1  0.80850889  0.75936133  0.62521494  1  0.381636  0  0.009549  -0.012144  0  3.971496  0
C  C328  1  0.85200138  0.32872134  0.65969164  1  0.31457  0  0.004845  -0.096275  0  3.898342  0
C  C329  1  0.19221789  0.17123899  0.34015894  1  0.300866  0  0.004593  -0.09604  0  3.898471  0
C  C330  1  0.14800311  0.67127919  0.34030994  1  0.314177  0  0.004932  -0.096168  0  3.898297  0
C  C331  1  0.80778474  0.82876310  0.65984255  1  0.300695  0  0.004578  -0.096012  0  3.898521  0
C  C332  1  0.24263943  0.94273348  0.45231747  1  1.560697  0  0.198328  0.568013  0  4.244568  0
C  C333  1  0.79055062  0.55731263  0.54755755  1  1.561619  0  0.19831  0.567299  0  4.243844  0
C  C334  1  0.75736268  0.05726753  0.54768255  1  1.560762  0  0.198263  0.567888  0  4.244656  0
C  C335  1  0.20945164  0.44268798  0.45244708  1  1.561632  0  0.198254  0.567101  0  4.243799  0
C  C336  1  0.23547693  0.01979395  0.47124973  1  0.023316  0  -0.023614  -0.041773  0  3.985395  0
C  C337  1  0.76445405  0.48027472  0.52866472  1  0.009261  0  -0.024086  -0.042533  0  3.986418  0
C  C338  1  0.76452741  0.98020706  0.52875027  1  0.034961  0  -0.023718  -0.041916  0  3.985565  0
C  C339  1  0.23554883  0.51972535  0.47133893  1  0.009202  0  -0.024108  -0.042372  0  3.986271  0
C  C340  1  0.14184744  0.04583924  0.46282725  1  -0.076238  0  -0.089295  -0.101068  0  3.98907  0
C  C341  1  0.67916498  0.45431548  0.53706233  1  -0.047217  0  -0.088868  -0.100337  0  3.989226  0
C  C342  1  0.85815640  0.95416229  0.53717309  1  -0.076293  0  -0.089271  -0.101043  0  3.989254  0
C  C343  1  0.32083699  0.54568403  0.46293956  1  -0.047229  0  -0.088873  -0.100497  0  3.989198  0
C  C344  1  0.13791532  0.11778075  0.48212656  1  -0.057983  0  -0.104149  -0.108897  0  4.042638  0
C  C345  1  0.65584053  0.38238043  0.51778403  1  -0.060246  0  -0.103588  -0.108786  0  4.043664  0
C  C346  1  0.86208687  0.88222078  0.51787364  1  -0.057623  0  -0.1041  -0.108762  0  4.042644  0
C  C347  1  0.34415863  0.61761847  0.48221420  1  -0.060253  0  -0.103584  -0.108777  0  4.043815  0
C  C348  1  0.22697110  0.16410484  0.51094592  1  -0.051457  0  -0.088105  -0.093239  0  3.967543  0
C  C349  1  0.71610953  0.33602966  0.48901482  1  -0.02485  0  -0.088833  -0.093455  0  3.967203  0
C  C350  1  0.77303160  0.83589616  0.48905393  1  -0.052217  0  -0.088105  -0.093283  0  3.967584  0
C  C351  1  0.28388928  0.66396920  0.51098229  1  -0.024737  0  -0.088898  -0.093511  0  3.967356  0
C  C352  1  0.32118962  0.13865956  0.52233889  1  -0.074054  0  -0.021058  -0.037656  0  3.964525  0
C  C353  1  0.79896306  0.36140749  0.47762306  1  -0.068906  0  -0.020727  -0.036962  0  3.964802  0
C  C354  1  0.67881384  0.86134043  0.47766156  1  -0.073808  0  -0.021093  -0.037674  0  3.964642  0
C  C355  1  0.20103673  0.63859300  0.52237681  1  -0.068884  0  -0.020785  -0.037023  0  3.964796  0
C  C356  1  0.32444906  0.06655886  0.50147659  1  -0.04955  0  -0.077303  -0.10162  0  3.917746  0
C  C357  1  0.82321632  0.43348193  0.49849987  1  -0.071743  0  -0.077543  -0.102358  0  3.918058  0
C  C358  1  0.67555404  0.93344110  0.49852275  1  -0.060485  0  -0.077271  -0.101542  0  3.917668  0
C  C359  1  0.17678695  0.56651763  0.50150408  1  -0.071839  0  -0.077432  -0.102362  0  3.917973  0
C  C360  1  0.41925285  0.18710690  0.55463506  1  1.582651  0  0.198199  0.576167  0  4.22462  0
C  C361  1  0.86464622  0.31289596  0.44536154  1  1.579052  0  0.197652  0.575168  0  4.225569  0
C  C362  1  0.58075013  0.81289307  0.44536492  1  1.582464  0  0.198171  0.576097  0  4.224746  0
C  C363  1  0.13535133  0.68710445  0.55463532  1  1.579503  0  0.197661  0.575144  0  4.225678  0
N  N364  1  0.62755358  0.59429902  0.10567931  1  -1.234512  0  -0.34961  -0.266336  0  3.59891  0
N  N365  1  0.52186839  0.90577710  0.89442774  1  -1.234899  0  -0.349386  -0.266277  0  3.598614  0
N  N366  1  0.37244936  0.40570417  0.89432492  1  -1.234471  0  -0.349573  -0.266294  0  3.598926  0
N  N367  1  0.47813053  0.09422381  0.10556832  1  -1.234906  0  -0.349448  -0.266364  0  3.598506  0
N  N368  1  0.69882994  0.60474060  0.03121582  1  -1.274373  0  -0.2228  0.014837  0  3.798455  0
N  N369  1  0.66772335  0.89514743  0.96866396  1  -1.267228  0  -0.222735  0.015708  0  3.798209  0
N  N370  1  0.30117117  0.39525940  0.96878529  1  -1.274308  0  -0.2228  0.014993  0  3.798342  0
N  N371  1  0.33227890  0.10485509  0.03133420  1  -1.26825  0  -0.222739  0.015501  0  3.798651  0
N  N372  1  0.42287860  0.83046711  0.54260881  1  -1.232196  0  -0.355577  -0.291613  0  3.603058  0
N  N373  1  0.88023399  0.66951208  0.45728823  1  -1.245042  0  -0.355311  -0.291158  0  3.602665  0
N  N374  1  0.57712639  0.16953496  0.45739201  1  -1.231656  0  -0.355631  -0.291567  0  3.603177  0
N  N375  1  0.11976032  0.33048520  0.54270713  1  -1.245127  0  -0.355352  -0.291237  0  3.602715  0
N  N376  1  0.49252985  0.79200352  0.63047577  1  -1.272675  0  -0.224857  0.006504  0  3.806633  0
N  N377  1  0.86201402  0.70801542  0.36945477  1  -1.278529  0  -0.225453  0.006464  0  3.807675  0
N  N378  1  0.50747155  0.20799751  0.36952506  1  -1.272815  0  -0.224868  0.006439  0  3.806673  0
N  N379  1  0.13798244  0.29197928  0.63054079  1  -1.278969  0  -0.225498  0.006509  0  3.808161  0
N  N380  1  0.25699184  0.89150499  0.86174606  1  -1.238467  0  -0.352494  -0.269322  0  3.592764  0
N  N381  1  0.39544981  0.60856278  0.13813896  1  -1.232368  0  -0.352388  -0.268833  0  3.591943  0
N  N382  1  0.74300795  0.10849344  0.13825422  1  -1.238471  0  -0.352492  -0.269249  0  3.592685  0
N  N383  1  0.60454869  0.39143781  0.86186492  1  -1.232474  0  -0.352494  -0.268922  0  3.591902  0
N  N384  1  0.11109481  0.85154616  0.86041904  1  -1.272055  0  -0.228275  0.003179  0  3.822299  0
N  N385  1  0.25093491  0.64851900  0.13961800  1  -1.269198  0  -0.227865  0.004385  0  3.822461  0
N  N386  1  0.88890725  0.14845181  0.13958343  1  -1.272192  0  -0.228386  0.003001  0  3.822521  0
N  N387  1  0.74906468  0.35148106  0.86038536  1  -1.26963  0  -0.227857  0.00434  0  3.822417  0
N  N388  1  0.71534973  0.25016700  0.61631606  1  -1.255675  0  -0.353424  -0.288803  0  3.626154  0
N  N389  1  0.09902256  0.24977696  0.38367982  1  -1.260639  0  -0.353242  -0.287947  0  3.628699  0
N  N390  1  0.28465488  0.74983351  0.38368488  1  -1.255697  0  -0.353451  -0.28882  0  3.626217  0
N  N391  1  0.90097684  0.75022404  0.61631975  1  -1.260614  0  -0.353251  -0.287928  0  3.628683  0
N  N392  1  0.77054991  0.36242816  0.67189776  1  -1.257506  0  -0.219271  0.009016  0  3.793896  0
N  N393  1  0.09857115  0.13755231  0.32796465  1  -1.281064  0  -0.219484  0.008716  0  3.795394  0
N  N394  1  0.22945510  0.63757130  0.32810266  1  -1.257067  0  -0.21924  0.008998  0  3.793943  0
N  N395  1  0.90142827  0.86244815  0.67203411  1  -1.281059  0  -0.219532  0.008663  0  3.795407  0
O  O396  1  0.58097138  0.56444135  0.23880563  1  -1.168693  0  -0.339163  -0.552878  0  2.278924  0
O  O397  1  0.34216761  0.93546906  0.76110523  1  -1.166464  0  -0.339046  -0.552074  0  2.279786  0
O  O398  1  0.41902584  0.43555644  0.76118971  1  -1.1686  0  -0.339205  -0.552924  0  2.27892  0
O  O399  1  0.65783097  0.06453190  0.23889276  1  -1.166328  0  -0.339009  -0.552016  0  2.279594  0
O  O400  1  0.53300753  0.47478968  0.13416605  1  -1.172112  0  -0.333834  -0.567213  0  2.132357  0
O  O401  1  0.39874867  0.02516954  0.86572227  1  -1.191474  0  -0.333856  -0.566503  0  2.129816  0
O  O402  1  0.46698602  0.52520656  0.86582912  1  -1.171962  0  -0.333754  -0.567112  0  2.132406  0
O  O403  1  0.60124599  0.97482982  0.13427379  1  -1.191692  0  -0.333921  -0.566542  0  2.13  0
O  O404  1  0.63385465  0.21483892  0.23541810  1  -1.167979  0  -0.334405  -0.555098  0  2.313283  0
O  O405  1  0.39859239  0.28500347  0.76437762  1  -1.166303  0  -0.334564  -0.556083  0  2.311875  0
O  O406  1  0.36613959  0.78516141  0.76457544  1  -1.167876  0  -0.334368  -0.555083  0  2.313345  0
O  O407  1  0.60141399  0.71499925  0.23562848  1  -1.166305  0  -0.334607  -0.556116  0  2.3117  0
O  O408  1  0.61088706  0.24005620  0.13655279  1  -1.197802  0  -0.342691  -0.58159  0  2.12297  0
O  O409  1  0.47417353  0.25982283  0.86331824  1  -1.199704  0  -0.342541  -0.582048  0  2.123192  0
O  O410  1  0.38911165  0.75994627  0.86344333  1  -1.197739  0  -0.342571  -0.581426  0  2.123272  0
O  O411  1  0.52583086  0.74017574  0.13668742  1  -1.199445  0  -0.342473  -0.581946  0  2.123332  0
O  O412  1  0.32764263  0.92511641  0.44417141  1  -1.178625  0  -0.345557  -0.560644  0  2.339552  0
O  O413  1  0.88375494  0.57497436  0.55588704  1  -1.177003  0  -0.345102  -0.559436  0  2.339203  0
O  O414  1  0.67236130  0.07488359  0.55582952  1  -1.178635  0  -0.345491  -0.560534  0  2.339572  0
O  O415  1  0.11624274  0.42502619  0.44411524  1  -1.177167  0  -0.345125  -0.55944  0  2.339087  0
O  O416  1  0.17130287  0.90219350  0.44660829  1  -1.194277  0  -0.333587  -0.564399  0  2.124622  0
O  O417  1  0.72482784  0.59781955  0.55307585  1  -1.196226  0  -0.334297  -0.564767  0  2.122564  0
O  O418  1  0.82869915  0.09780699  0.55339155  1  -1.194366  0  -0.333553  -0.56434  0  2.124578  0
O  O419  1  0.27517450  0.40218006  0.44693019  1  -1.196211  0  -0.334246  -0.564646  0  2.122592  0
O  O420  1  0.49882543  0.15863477  0.57985636  1  -1.189653  0  -0.359122  -0.582162  0  2.324513  0
O  O421  1  0.91892186  0.34124496  0.42001858  1  -1.181235  0  -0.359203  -0.581264  0  2.323518  0
O  O422  1  0.50117837  0.84136517  0.42014217  1  -1.18946  0  -0.359074  -0.582092  0  2.324489  0
O  O423  1  0.08107742  0.65875598  0.57997860  1  -1.181589  0  -0.359138  -0.581193  0  2.323694  0
O  O424  1  0.41979693  0.24789167  0.55380174  1  -1.180496  0  -0.344962  -0.568746  0  2.077771  0
O  O425  1  0.86608214  0.25216861  0.44636190  1  -1.182247  0  -0.344927  -0.569021  0  2.078795  0
O  O426  1  0.58020500  0.75210830  0.44619793  1  -1.180627  0  -0.344983  -0.568761  0  2.077808  0
O  O427  1  0.13391554  0.74783125  0.55363351  1  -1.182336  0  -0.345005  -0.569072  0  2.078781  0
