# generated using pymatgen
data_Dy2Cd3H36(C2O3)12
_symmetry_space_group_name_H-M   'P 1'
_cell_length_a   18.51372015
_cell_length_b   18.51371858
_cell_length_c   18.51371655
_cell_angle_alpha   59.99993412
_cell_angle_beta   59.99990728
_cell_angle_gamma   59.99988941
_symmetry_Int_Tables_number   1
_chemical_formula_structural   Dy2Cd3H36(C2O3)12
_chemical_formula_sum   'Dy8 Cd12 H144 C96 O144'
_cell_volume   4487.09311152
_cell_formula_units_Z   4
loop_
 _symmetry_equiv_pos_site_id
 _symmetry_equiv_pos_as_xyz
  1  'x, y, z'
loop_
 _atom_site_type_symbol
 _atom_site_label
 _atom_site_symmetry_multiplicity
 _atom_site_fract_x
 _atom_site_fract_y
 _atom_site_fract_z
 _atom_site_occupancy
 _atom_site_pbe_bader_charge
 _atom_site_pbe_bader_spin_density
 _atom_site_pbe_cm5_charge
 _atom_site_pbe_ddec_charge
 _atom_site_pbe_ddec_spin_density
 _atom_site_pbe_ddec_sum_bond_order
 _atom_site_pbe_magmom
Dy  Dy0  1  0.75000095  0.25000051  0.74999810  1  2.170006  0  1.546887  1.953644  0  2.327983  0
Dy  Dy1  1  0.74999944  0.25000094  0.24999970  1  2.171669  0  1.546837  1.953546  0  2.328135  0
Dy  Dy2  1  0.24999913  0.25000036  0.24999995  1  2.17009  0  1.546892  1.953585  0  2.328078  0
Dy  Dy3  1  0.74999964  0.74999988  0.25000063  1  2.170079  0  1.546869  1.953593  0  2.328077  0
Dy  Dy4  1  0.25000071  0.74999960  0.24999985  1  2.170042  0  1.546865  1.953507  0  2.328198  0
Dy  Dy5  1  0.25000020  0.75000039  0.74999972  1  2.171638  0  1.546879  1.95366  0  2.327974  0
Dy  Dy6  1  0.74999922  0.75000076  0.74999966  1  2.170058  0  1.546925  1.953644  0  2.327984  0
Dy  Dy7  1  0.24999992  0.24999922  0.75000044  1  2.170073  0  1.546908  1.953638  0  2.328004  0
Cd  Cd8  1  0.62499972  0.12500007  0.12500024  1  1.464248  0  0.825507  1.273346  0  1.951962  0
Cd  Cd9  1  0.87500068  0.37500010  0.37500001  1  1.464264  0  0.825522  1.273369  0  1.951877  0
Cd  Cd10  1  0.37500046  0.87499965  0.87499958  1  1.464247  0  0.825539  1.273384  0  1.951859  0
Cd  Cd11  1  0.12500048  0.62499952  0.62500026  1  1.464256  0  0.825537  1.273368  0  1.951863  0
Cd  Cd12  1  0.50000000  0.50000031  0.50000055  1  1.402896  0  0.803472  1.115856  0  2.226675  0
Cd  Cd13  1  0.49999967  0.50000020  0.99999913  1  1.402929  0  0.80348  1.115898  0  2.226577  0
Cd  Cd14  1  0.00000012  0.49999930  0.99999960  1  1.402924  0  0.803485  1.115873  0  2.226631  0
Cd  Cd15  1  0.50000005  0.00000077  0.00000011  1  1.402293  0  0.803472  1.115848  0  2.226667  0
Cd  Cd16  1  0.00000083  0.99999852  0.50000026  1  1.402941  0  0.8035  1.115917  0  2.226576  0
Cd  Cd17  1  0.50000012  0.00000061  0.49999940  1  1.402908  0  0.803491  1.11589  0  2.226593  0
Cd  Cd18  1  0.00000063  0.49999959  0.49999933  1  1.402313  0  0.803496  1.115904  0  2.226614  0
Cd  Cd19  1  0.00000026  0.99999881  0.00000039  1  1.402877  0  0.803483  1.115872  0  2.226612  0
H  H20  1  0.71533011  0.25335570  0.97623920  1  0.625431  0  0.300024  0.403232  0  0.917411  0
H  H21  1  0.94492217  0.28466605  0.24664760  1  0.650974  0  0.299996  0.40319  0  0.917408  0
H  H22  1  0.47623676  0.05507501  0.21533366  1  0.653737  0  0.300004  0.403232  0  0.917409  0
H  H23  1  0.74664379  0.52376036  0.44492640  1  0.654525  0  0.300047  0.403183  0  0.917463  0
H  H24  1  0.75335398  0.21533272  0.05507626  1  0.650957  0  0.300029  0.403186  0  0.917395  0
H  H25  1  0.02376108  0.24664389  0.28466910  1  0.625416  0  0.300027  0.40326  0  0.91738  0
H  H26  1  0.55507718  0.97623716  0.25335283  1  0.654491  0  0.299996  0.403211  0  0.91744  0
H  H27  1  0.78466582  0.44492187  0.52376515  1  0.653722  0  0.300079  0.403233  0  0.917408  0
H  H28  1  0.71533248  0.97623798  0.05507305  1  0.653642  0  0.300014  0.403259  0  0.917364  0
H  H29  1  0.74664784  0.28466674  0.52376417  1  0.625465  0  0.300054  0.403183  0  0.917467  0
H  H30  1  0.55507821  0.25335244  0.21533435  1  0.650969  0  0.299974  0.403186  0  0.917409  0
H  H31  1  0.02375790  0.44493074  0.24664053  1  0.654365  0  0.300027  0.40322  0  0.917413  0
H  H32  1  0.47623952  0.21533004  0.25335723  1  0.625422  0  0.299998  0.40324  0  0.917413  0
H  H33  1  0.94491716  0.52376848  0.28466316  1  0.653706  0  0.299987  0.403169  0  0.917507  0
H  H34  1  0.75335127  0.05507925  0.97623673  1  0.654145  0  0.29999  0.40319  0  0.917474  0
H  H35  1  0.78466754  0.24664430  0.44492669  1  0.650965  0  0.300043  0.403168  0  0.91741  0
H  H36  1  0.71533419  0.05507588  0.25335425  1  0.650952  0  0.299991  0.403167  0  0.91741  0
H  H37  1  0.78466733  0.52376222  0.24664518  1  0.625442  0  0.300031  0.403245  0  0.91739  0
H  H38  1  0.02376418  0.28466649  0.44492214  1  0.653736  0  0.299995  0.40318  0  0.91746  0
H  H39  1  0.74664740  0.44492277  0.28466702  1  0.650994  0  0.300013  0.40321  0  0.91736  0
H  H40  1  0.94492602  0.24664410  0.52376107  1  0.654514  0  0.300007  0.40318  0  0.917456  0
H  H41  1  0.55507348  0.21533293  0.97623793  1  0.653673  0  0.300008  0.403196  0  0.917441  0
H  H42  1  0.75335565  0.97623854  0.21533070  1  0.625425  0  0.300026  0.403243  0  0.917401  0
H  H43  1  0.47623678  0.25335205  0.05507951  1  0.654481  0  0.300032  0.403206  0  0.917434  0
H  H44  1  0.28466973  0.74664260  0.02375974  1  0.625426  0  0.300018  0.403238  0  0.917403  0
H  H45  1  0.05507494  0.71533167  0.75335530  1  0.650944  0  0.300069  0.403203  0  0.917349  0
H  H46  1  0.52376343  0.94492364  0.78466657  1  0.653737  0  0.300073  0.403241  0  0.917386  0
H  H47  1  0.25335440  0.47623736  0.55507610  1  0.654481  0  0.300044  0.403184  0  0.917453  0
H  H48  1  0.24664895  0.78466543  0.94492040  1  0.651082  0  0.299996  0.403187  0  0.9174  0
H  H49  1  0.97623813  0.75335486  0.71533068  1  0.625421  0  0.300034  0.40317  0  0.917486  0
H  H50  1  0.44492394  0.02376243  0.74664552  1  0.654481  0  0.300042  0.403195  0  0.917449  0
H  H51  1  0.21533428  0.55507562  0.47623633  1  0.653659  0  0.300025  0.403151  0  0.917494  0
H  H52  1  0.28466744  0.02376255  0.94492424  1  0.653746  0  0.300064  0.403193  0  0.917438  0
H  H53  1  0.25335266  0.71533329  0.47623502  1  0.625464  0  0.300038  0.403205  0  0.917456  0
H  H54  1  0.44492152  0.74664899  0.78466422  1  0.651102  0  0.299986  0.403178  0  0.917416  0
H  H55  1  0.97623598  0.55507888  0.75335173  1  0.654125  0  0.300001  0.403203  0  0.91746  0
H  H56  1  0.52376088  0.78466990  0.74664281  1  0.625413  0  0.300016  0.40328  0  0.917357  0
H  H57  1  0.05507396  0.47623838  0.71533196  1  0.653725  0  0.300017  0.403247  0  0.917384  0
H  H58  1  0.24664554  0.94492358  0.02376203  1  0.654483  0  0.300061  0.403193  0  0.917456  0
H  H59  1  0.21533111  0.75335714  0.55507228  1  0.651228  0  0.300027  0.403188  0  0.917389  0
H  H60  1  0.28466558  0.94492451  0.74664664  1  0.65109  0  0.300047  0.403188  0  0.917371  0
H  H61  1  0.21533229  0.47623585  0.75335354  1  0.625455  0  0.300039  0.403156  0  0.917493  0
H  H62  1  0.97623925  0.71533215  0.55507221  1  0.65365  0  0.300008  0.403244  0  0.917394  0
H  H63  1  0.25335761  0.55507205  0.71533089  1  0.651208  0  0.300078  0.403211  0  0.917335  0
H  H64  1  0.05508002  0.75335067  0.47623453  1  0.654101  0  0.299985  0.403191  0  0.917476  0
H  H65  1  0.44492211  0.78466544  0.02376454  1  0.653732  0  0.300096  0.403253  0  0.91738  0
H  H66  1  0.24664582  0.02376246  0.78466854  1  0.62543  0  0.300027  0.403191  0  0.91746  0
H  H67  1  0.52376092  0.74664303  0.94492611  1  0.654516  0  0.300046  0.403191  0  0.917446  0
H  H68  1  0.57875426  0.48571321  0.64403345  1  0.092624  0  0.114012  0.105514  0  0.97114  0
H  H69  1  0.70850200  0.42124545  0.01428821  1  0.082856  0  0.11402  0.105567  0  0.971071  0
H  H70  1  0.14403470  0.29149756  0.07875559  1  0.086391  0  0.114003  0.10549  0  0.971114  0
H  H71  1  0.51428777  0.85596490  0.20850103  1  0.108448  0  0.114009  0.105531  0  0.971185  0
H  H72  1  0.98571142  0.07875352  0.29149951  1  0.082895  0  0.11402  0.105531  0  0.971159  0
H  H73  1  0.35596734  0.01428740  0.42124468  1  0.09263  0  0.11399  0.105507  0  0.971158  0
H  H74  1  0.79149946  0.64403377  0.48571211  1  0.108455  0  0.114006  0.105528  0  0.971156  0
H  H75  1  0.92124389  0.20850255  0.85596469  1  0.086426  0  0.114018  0.10555  0  0.971073  0
H  H76  1  0.57875477  0.64403427  0.29149825  1  0.086387  0  0.114022  0.105545  0  0.971085  0
H  H77  1  0.51428887  0.42124358  0.85596514  1  0.092657  0  0.114012  0.105513  0  0.971135  0
H  H78  1  0.79149957  0.48571084  0.07875404  1  0.082831  0  0.114022  0.105526  0  0.971166  0
H  H79  1  0.35596543  0.20850055  0.01428758  1  0.108457  0  0.114006  0.105534  0  0.971148  0
H  H80  1  0.14403559  0.07875439  0.48571285  1  0.092644  0  0.113996  0.10551  0  0.971127  0
H  H81  1  0.70850146  0.85596456  0.42124375  1  0.086436  0  0.114006  0.105532  0  0.971087  0
H  H82  1  0.98571184  0.29149941  0.64403408  1  0.108446  0  0.114011  0.105543  0  0.971201  0
H  H83  1  0.92124629  0.01428834  0.20850103  1  0.082899  0  0.114023  0.105549  0  0.971105  0
H  H84  1  0.57875419  0.29149891  0.48571210  1  0.082816  0  0.114013  0.105548  0  0.97112  0
H  H85  1  0.92124322  0.85596519  0.01428834  1  0.092679  0  0.114007  0.105518  0  0.971165  0
H  H86  1  0.35596496  0.42124438  0.20850297  1  0.086393  0  0.114004  0.105495  0  0.971114  0
H  H87  1  0.51428777  0.20850238  0.42124626  1  0.082843  0  0.114012  0.105535  0  0.971093  0
H  H88  1  0.70850155  0.01428916  0.85596438  1  0.10848  0  0.114015  0.105522  0  0.97114  0
H  H89  1  0.79149861  0.07875283  0.64403453  1  0.086369  0  0.114014  0.105514  0  0.971115  0
H  H90  1  0.98571317  0.64403427  0.07875269  1  0.09253  0  0.114027  0.105539  0  0.97113  0
H  H91  1  0.14403362  0.48571072  0.29149961  1  0.108477  0  0.114016  0.105527  0  0.971169  0
H  H92  1  0.42124492  0.51428875  0.35596512  1  0.092655  0  0.114008  0.105507  0  0.971149  0
H  H93  1  0.29149962  0.57875354  0.98571290  1  0.082891  0  0.114035  0.105572  0  0.971082  0
H  H94  1  0.85596549  0.70850109  0.92124464  1  0.086397  0  0.114006  0.105504  0  0.97113  0
H  H95  1  0.48571327  0.14403459  0.79149817  1  0.108449  0  0.114004  0.105509  0  0.971207  0
H  H96  1  0.01428913  0.92124440  0.70850241  1  0.082835  0  0.114015  0.105533  0  0.971098  0
H  H97  1  0.64403390  0.98571446  0.57875394  1  0.092574  0  0.114007  0.105519  0  0.971171  0
H  H98  1  0.20850064  0.35596478  0.51428896  1  0.10848  0  0.114018  0.105542  0  0.97112  0
H  H99  1  0.07875683  0.79149770  0.14403473  1  0.086411  0  0.114012  0.105531  0  0.97109  0
H  H100  1  0.42124511  0.35596514  0.70850219  1  0.086392  0  0.114  0.105534  0  0.971114  0
H  H101  1  0.48571216  0.57875591  0.14403406  1  0.092642  0  0.113998  0.105508  0  0.971136  0
H  H102  1  0.20850200  0.51428919  0.92124475  1  0.082827  0  0.114014  0.105535  0  0.971116  0
H  H103  1  0.64403432  0.79149766  0.98571220  1  0.108472  0  0.114002  0.105524  0  0.971116  0
H  H104  1  0.85596581  0.92124437  0.51428804  1  0.092649  0  0.114001  0.105508  0  0.971133  0
H  H105  1  0.29149891  0.14403427  0.57875479  1  0.086386  0  0.114006  0.105509  0  0.97114  0
H  H106  1  0.01428790  0.70849987  0.35596530  1  0.108465  0  0.114014  0.10551  0  0.971168  0
H  H107  1  0.07875380  0.98571236  0.79149924  1  0.082886  0  0.114015  0.105533  0  0.97112  0
H  H108  1  0.42124343  0.70850256  0.51428919  1  0.082867  0  0.114004  0.105548  0  0.971089  0
H  H109  1  0.07875410  0.14403383  0.98571438  1  0.092573  0  0.114024  0.105572  0  0.971178  0
H  H110  1  0.64403513  0.57875524  0.79149770  1  0.086394  0  0.114003  0.105532  0  0.971118  0
H  H111  1  0.48571401  0.79149894  0.57875235  1  0.082869  0  0.114018  0.10553  0  0.971123  0
H  H112  1  0.29149733  0.98571249  0.14403482  1  0.108464  0  0.113998  0.105495  0  0.971143  0
H  H113  1  0.20850091  0.92124622  0.35596463  1  0.086381  0  0.11401  0.105547  0  0.97114  0
H  H114  1  0.01428921  0.35596549  0.92124358  1  0.092665  0  0.114015  0.105523  0  0.97111  0
H  H115  1  0.85596560  0.51428695  0.70850058  1  0.108452  0  0.11402  0.105535  0  0.971123  0
H  H116  1  0.50437453  0.42497314  0.72230442  1  0.101991  0  0.110406  0.102604  0  0.98081  0
H  H117  1  0.65165134  0.49562638  0.07502792  1  0.087251  0  0.110422  0.102618  0  0.980837  0
H  H118  1  0.22230347  0.34834864  0.00437373  1  0.092053  0  0.110413  0.102596  0  0.9808  0
H  H119  1  0.57502705  0.77769565  0.15165149  1  0.085487  0  0.110418  0.102623  0  0.980755  0
H  H120  1  0.92497215  0.00437463  0.34834904  1  0.087259  0  0.110425  0.102625  0  0.980824  0
H  H121  1  0.27769699  0.07502558  0.49562572  1  0.101892  0  0.110424  0.102645  0  0.980762  0
H  H122  1  0.84834846  0.72230475  0.42497160  1  0.085534  0  0.110426  0.102625  0  0.980796  0
H  H123  1  0.99562544  0.15165143  0.77769556  1  0.092064  0  0.110422  0.102618  0  0.980798  0
H  H124  1  0.50437341  0.72230431  0.34834826  1  0.092047  0  0.110417  0.102608  0  0.980795  0
H  H125  1  0.57502545  0.49562626  0.77769671  1  0.101883  0  0.110416  0.102621  0  0.980797  0
H  H126  1  0.84834833  0.42497089  0.00437525  1  0.087244  0  0.110423  0.102625  0  0.980828  0
H  H127  1  0.27769528  0.15165240  0.07502707  1  0.085495  0  0.110438  0.102657  0  0.980785  0
H  H128  1  0.22230390  0.00437347  0.42497459  1  0.101938  0  0.110418  0.102622  0  0.980797  0
H  H129  1  0.65165090  0.77769528  0.49562560  1  0.092051  0  0.110425  0.102624  0  0.980819  0
H  H130  1  0.92497274  0.34834793  0.72230484  1  0.085489  0  0.110428  0.102654  0  0.98079  0
H  H131  1  0.99562595  0.07502728  0.15165171  1  0.087249  0  0.110422  0.102617  0  0.980817  0
H  H132  1  0.50437404  0.34834921  0.42497265  1  0.087267  0  0.110411  0.102622  0  0.980802  0
H  H133  1  0.99562592  0.77769762  0.07502406  1  0.101896  0  0.110408  0.102622  0  0.9808  0
H  H134  1  0.27769471  0.49562548  0.15165279  1  0.092113  0  0.110423  0.102585  0  0.980818  0
H  H135  1  0.57502878  0.15165151  0.49562543  1  0.087267  0  0.11042  0.102603  0  0.980856  0
H  H136  1  0.65165095  0.07502721  0.77769677  1  0.085507  0  0.110405  0.102597  0  0.98079  0
H  H137  1  0.84834780  0.00437375  0.72230575  1  0.092093  0  0.110419  0.102616  0  0.980833  0
H  H138  1  0.92497205  0.72230485  0.00437502  1  0.102  0  0.110421  0.102628  0  0.980837  0
H  H139  1  0.22230359  0.42497331  0.34834853  1  0.085502  0  0.110422  0.102635  0  0.980767  0
H  H140  1  0.49562596  0.57502689  0.27769478  1  0.101993  0  0.110424  0.102609  0  0.980819  0
H  H141  1  0.34834860  0.50437527  0.92497087  1  0.081873  0  0.110421  0.102626  0  0.980811  0
H  H142  1  0.77769527  0.65165289  0.99562440  1  0.092066  0  0.110429  0.102607  0  0.980842  0
H  H143  1  0.42497313  0.22230407  0.84834833  1  0.085501  0  0.110413  0.102604  0  0.980806  0
H  H144  1  0.07502664  0.99562585  0.65165141  1  0.087281  0  0.110412  0.102612  0  0.98079  0
H  H145  1  0.72230363  0.92497458  0.50437454  1  0.101984  0  0.110417  0.102615  0  0.980822  0
H  H146  1  0.15165020  0.27769561  0.57502778  1  0.085493  0  0.110409  0.102595  0  0.980823  0
H  H147  1  0.00437408  0.84834763  0.22230360  1  0.092061  0  0.110431  0.102634  0  0.980793  0
H  H148  1  0.49562623  0.27769595  0.65165156  1  0.092047  0  0.110419  0.102627  0  0.980803  0
H  H149  1  0.42497420  0.50437400  0.22230311  1  0.101881  0  0.110406  0.102592  0  0.980766  0
H  H150  1  0.15165102  0.57502691  0.99562601  1  0.087265  0  0.110408  0.102613  0  0.980799  0
H  H151  1  0.72230373  0.84834831  0.92497360  1  0.085502  0  0.110424  0.102619  0  0.980776  0
H  H152  1  0.77769681  0.99562678  0.57502483  1  0.101882  0  0.110409  0.102597  0  0.980779  0
H  H153  1  0.34834736  0.22230468  0.50437525  1  0.092068  0  0.110431  0.102624  0  0.980809  0
H  H154  1  0.07502852  0.65165178  0.27769458  1  0.085508  0  0.110423  0.102602  0  0.980825  0
H  H155  1  0.00437477  0.92497190  0.84834811  1  0.087175  0  0.110421  0.102614  0  0.98084  0
H  H156  1  0.49562568  0.65165221  0.57502593  1  0.087279  0  0.110425  0.10264  0  0.980797  0
H  H157  1  0.00437380  0.22230488  0.92497412  1  0.10198  0  0.110418  0.102651  0  0.980775  0
H  H158  1  0.72230387  0.50437371  0.84834784  1  0.092044  0  0.110421  0.102625  0  0.980804  0
H  H159  1  0.42497109  0.84834897  0.50437461  1  0.087244  0  0.110418  0.102608  0  0.980835  0
H  H160  1  0.34834935  0.92497372  0.22230371  1  0.085492  0  0.110399  0.10257  0  0.98076  0
H  H161  1  0.15165239  0.99562490  0.27769447  1  0.091902  0  0.110417  0.102634  0  0.980836  0
H  H162  1  0.07502642  0.27769640  0.99562565  1  0.101981  0  0.110423  0.10262  0  0.980791  0
H  H163  1  0.77769551  0.57502749  0.65165129  1  0.085483  0  0.110408  0.102595  0  0.980796  0
C  C164  1  0.57483153  0.41898507  0.68799875  1  0.368217  0  -0.061209  -0.117735  0  3.878236  0
C  C165  1  0.68181418  0.42516853  0.08101781  1  0.391463  0  -0.061181  -0.117702  0  3.878186  0
C  C166  1  0.18799882  0.31818581  0.07483075  1  0.387835  0  -0.061188  -0.117633  0  3.878063  0
C  C167  1  0.58101448  0.81199944  0.18181687  1  0.391761  0  -0.061217  -0.11777  0  3.878247  0
C  C168  1  0.91898392  0.07483145  0.31818491  1  0.391647  0  -0.061208  -0.117729  0  3.878261  0
C  C169  1  0.31200243  0.08101465  0.42516860  1  0.368431  0  -0.061176  -0.117743  0  3.878185  0
C  C170  1  0.81818520  0.68799860  0.41898376  1  0.391763  0  -0.061221  -0.11778  0  3.878365  0
C  C171  1  0.92516742  0.18181412  0.81200072  1  0.387837  0  -0.061192  -0.117714  0  3.878083  0
C  C172  1  0.57483079  0.68799920  0.31818550  1  0.387837  0  -0.061184  -0.117674  0  3.87801  0
C  C173  1  0.58101522  0.42516882  0.81200111  1  0.368101  0  -0.061201  -0.117708  0  3.878151  0
C  C174  1  0.81818407  0.41898445  0.07483109  1  0.391707  0  -0.06121  -0.117737  0  3.878245  0
C  C175  1  0.31200013  0.18181546  0.08101510  1  0.391758  0  -0.061221  -0.117804  0  3.878276  0
C  C176  1  0.18800064  0.07482946  0.41898580  1  0.368259  0  -0.061187  -0.117691  0  3.878067  0
C  C177  1  0.68181527  0.81199927  0.42516903  1  0.387786  0  -0.061199  -0.117721  0  3.878121  0
C  C178  1  0.91898577  0.31818424  0.68799955  1  0.391789  0  -0.061236  -0.117849  0  3.878355  0
C  C179  1  0.92516889  0.08101636  0.18181524  1  0.391499  0  -0.061193  -0.117718  0  3.878177  0
C  C180  1  0.57483021  0.31818470  0.41898479  1  0.391668  0  -0.061218  -0.117792  0  3.878263  0
C  C181  1  0.92516952  0.81200047  0.08101434  1  0.368277  0  -0.061171  -0.117685  0  3.878138  0
C  C182  1  0.31200089  0.42516811  0.18181512  1  0.387785  0  -0.061159  -0.117547  0  3.878069  0
C  C183  1  0.58101696  0.18181421  0.42516874  1  0.391191  0  -0.061159  -0.11764  0  3.878123  0
C  C184  1  0.68181556  0.08101513  0.81200018  1  0.391742  0  -0.0612  -0.117718  0  3.878219  0
C  C185  1  0.81818478  0.07483032  0.68799974  1  0.387775  0  -0.061185  -0.117673  0  3.878118  0
C  C186  1  0.91898467  0.68799899  0.07483089  1  0.368305  0  -0.061236  -0.117768  0  3.878252  0
C  C187  1  0.18799942  0.41898546  0.31818462  1  0.391745  0  -0.061253  -0.117826  0  3.878293  0
C  C188  1  0.42516919  0.58101518  0.31200067  1  0.368219  0  -0.061204  -0.117669  0  3.878138  0
C  C189  1  0.31818635  0.57483262  0.91898289  1  0.396246  0  -0.061242  -0.117858  0  3.878264  0
C  C190  1  0.81200113  0.68181476  0.92516845  1  0.387805  0  -0.061219  -0.117697  0  3.878236  0
C  C191  1  0.41898562  0.18799911  0.81818420  1  0.391784  0  -0.061175  -0.117648  0  3.878166  0
C  C192  1  0.08101594  0.92516903  0.68181513  1  0.391633  0  -0.061214  -0.117719  0  3.87818  0
C  C193  1  0.68799904  0.91898636  0.57483064  1  0.368404  0  -0.061222  -0.117742  0  3.878283  0
C  C194  1  0.18181477  0.31199983  0.58101625  1  0.391773  0  -0.061202  -0.11773  0  3.87819  0
C  C195  1  0.07483147  0.81818539  0.18799928  1  0.387788  0  -0.061206  -0.117734  0  3.878172  0
C  C196  1  0.42516908  0.31200021  0.68181495  1  0.387816  0  -0.061221  -0.11779  0  3.878292  0
C  C197  1  0.41898464  0.57483166  0.18799893  1  0.36834  0  -0.061186  -0.117676  0  3.878135  0
C  C198  1  0.18181571  0.58101487  0.92517020  1  0.391816  0  -0.061215  -0.11776  0  3.878214  0
C  C199  1  0.68799928  0.81818566  0.91898410  1  0.391774  0  -0.0612  -0.117716  0  3.878155  0
C  C200  1  0.81200075  0.92516931  0.58101509  1  0.368114  0  -0.061185  -0.117661  0  3.878075  0
C  C201  1  0.31818515  0.18799853  0.57483182  1  0.387825  0  -0.061216  -0.117732  0  3.878277  0
C  C202  1  0.08101571  0.68181462  0.31200049  1  0.391771  0  -0.061177  -0.117641  0  3.878186  0
C  C203  1  0.07483164  0.91898371  0.81818587  1  0.39159  0  -0.061207  -0.117717  0  3.878261  0
C  C204  1  0.42516965  0.68181578  0.58101526  1  0.391562  0  -0.06122  -0.117811  0  3.878253  0
C  C205  1  0.07483079  0.18799938  0.91898654  1  0.368283  0  -0.061213  -0.117856  0  3.878276  0
C  C206  1  0.68799984  0.57483000  0.81818511  1  0.387807  0  -0.061205  -0.117733  0  3.878188  0
C  C207  1  0.41898420  0.81818541  0.57483152  1  0.391244  0  -0.061217  -0.117713  0  3.878149  0
C  C208  1  0.31818547  0.91898437  0.18799902  1  0.3918  0  -0.061155  -0.117594  0  3.878047  0
C  C209  1  0.18181594  0.92516886  0.31200008  1  0.387934  0  -0.061239  -0.117893  0  3.878414  0
C  C210  1  0.08101606  0.31200019  0.92516893  1  0.368036  0  -0.061185  -0.117684  0  3.878075  0
C  C211  1  0.81200054  0.58101512  0.68181458  1  0.39178  0  -0.061209  -0.117697  0  3.878132  0
C  C212  1  0.61976513  0.35999446  0.63160773  1  1.627911  0  0.222327  0.633407  0  4.161441  0
C  C213  1  0.61136759  0.38023713  0.14000605  1  1.629772  0  0.222365  0.633364  0  4.161254  0
C  C214  1  0.13160872  0.38863269  0.11976489  1  1.62464  0  0.222361  0.633412  0  4.161474  0
C  C215  1  0.64000525  0.86839104  0.11136846  1  1.605345  0  0.222356  0.633403  0  4.161274  0
C  C216  1  0.85999465  0.11976532  0.38863208  1  1.629815  0  0.222339  0.63337  0  4.161504  0
C  C217  1  0.36839233  0.14000370  0.38023564  1  1.627761  0  0.222389  0.633448  0  4.161359  0
C  C218  1  0.88863241  0.63160666  0.35999514  1  1.605329  0  0.222381  0.633528  0  4.161525  0
C  C219  1  0.88023423  0.11137008  0.86839036  1  1.624617  0  0.222301  0.633351  0  4.16165  0
C  C220  1  0.61976490  0.63161047  0.38863168  1  1.624615  0  0.222335  0.633367  0  4.161464  0
C  C221  1  0.64000460  0.38023620  0.86839103  1  1.628364  0  0.222424  0.633514  0  4.161402  0
C  C222  1  0.88863312  0.35999416  0.11976473  1  1.629867  0  0.222336  0.633448  0  4.161411  0
C  C223  1  0.36839089  0.11136820  0.14000492  1  1.605278  0  0.222375  0.63344  0  4.161278  0
C  C224  1  0.13160897  0.11976494  0.35999399  1  1.627789  0  0.222351  0.633409  0  4.161313  0
C  C225  1  0.61136916  0.86839009  0.38023474  1  1.624653  0  0.222354  0.633437  0  4.161353  0
C  C226  1  0.85999496  0.38863384  0.63160744  1  1.605177  0  0.222358  0.633405  0  4.16115  0
C  C227  1  0.88023419  0.14000690  0.11136832  1  1.629823  0  0.222311  0.633399  0  4.161575  0
C  C228  1  0.61976416  0.38863272  0.35999388  1  1.629749  0  0.222362  0.633403  0  4.161246  0
C  C229  1  0.88023615  0.86839107  0.14000578  1  1.627712  0  0.222333  0.633357  0  4.161366  0
C  C230  1  0.36839180  0.38023396  0.11136810  1  1.624665  0  0.222303  0.633288  0  4.161756  0
C  C231  1  0.64000618  0.11136837  0.38023426  1  1.630102  0  0.222338  0.633415  0  4.161604  0
C  C232  1  0.61136777  0.14000348  0.86839295  1  1.605233  0  0.222363  0.633421  0  4.161271  0
C  C233  1  0.88863218  0.11976361  0.63160994  1  1.624637  0  0.222331  0.633356  0  4.161368  0
C  C234  1  0.85999531  0.63160664  0.11976528  1  1.627704  0  0.222326  0.63336  0  4.161485  0
C  C235  1  0.13160909  0.35999491  0.38863284  1  1.605299  0  0.222371  0.63344  0  4.161091  0
C  C236  1  0.38023535  0.64000664  0.36839106  1  1.627893  0  0.222324  0.633378  0  4.161459  0
C  C237  1  0.38863229  0.61976553  0.85999510  1  1.630121  0  0.222409  0.633604  0  4.161528  0
C  C238  1  0.86839191  0.61136747  0.88023537  1  1.624644  0  0.222301  0.633347  0  4.161571  0
C  C239  1  0.35999440  0.13160815  0.88863176  1  1.605336  0  0.222339  0.633354  0  4.161519  0
C  C240  1  0.14000652  0.88023431  0.61136818  1  1.629838  0  0.22229  0.633362  0  4.161583  0
C  C241  1  0.63160892  0.85999602  0.61976378  1  1.62783  0  0.222381  0.633435  0  4.16125  0
C  C242  1  0.11136760  0.36839180  0.64000677  1  1.605363  0  0.222341  0.633389  0  4.161596  0
C  C243  1  0.11976357  0.88863158  0.13160924  1  1.624607  0  0.222372  0.633386  0  4.161385  0
C  C244  1  0.38023701  0.36839097  0.61136800  1  1.624621  0  0.222381  0.633427  0  4.161304  0
C  C245  1  0.35999495  0.61976504  0.13160923  1  1.627866  0  0.222382  0.633461  0  4.161413  0
C  C246  1  0.11136733  0.64000475  0.88023762  1  1.629646  0  0.222376  0.633432  0  4.161179  0
C  C247  1  0.63160830  0.88863270  0.85999406  1  1.605283  0  0.222361  0.633409  0  4.161464  0
C  C248  1  0.86839143  0.88023500  0.64000606  1  1.627897  0  0.222353  0.633424  0  4.161497  0
C  C249  1  0.38863198  0.13160842  0.61976402  1  1.624649  0  0.222375  0.633461  0  4.161381  0
C  C250  1  0.14000620  0.61136685  0.36839242  1  1.605249  0  0.222332  0.63341  0  4.161528  0
C  C251  1  0.11976535  0.85999434  0.88863195  1  1.629844  0  0.222343  0.63343  0  4.161532  0
C  C252  1  0.38023740  0.61136838  0.64000451  1  1.629727  0  0.222393  0.633474  0  4.16114  0
C  C253  1  0.11976416  0.13160878  0.85999510  1  1.627995  0  0.222399  0.633496  0  4.161119  0
C  C254  1  0.63161055  0.61976360  0.88863173  1  1.624632  0  0.222323  0.63332  0  4.161482  0
C  C255  1  0.35999390  0.88863233  0.61976600  1  1.630136  0  0.222286  0.633318  0  4.161619  0
C  C256  1  0.38863287  0.85999346  0.13160852  1  1.605341  0  0.222339  0.633367  0  4.161526  0
C  C257  1  0.11136817  0.88023628  0.36839285  1  1.624647  0  0.222417  0.633579  0  4.16121  0
C  C258  1  0.14000704  0.36839092  0.88023454  1  1.627883  0  0.222362  0.633473  0  4.161514  0
C  C259  1  0.86839121  0.64000601  0.61136764  1  1.60529  0  0.222351  0.63337  0  4.161478  0
O  O260  1  0.71304186  0.21303138  0.03696163  1  -1.252265  0  -0.586715  -0.791399  0  2.054065  0
O  O261  1  0.96303925  0.28696999  0.28695667  1  -1.252258  0  -0.586681  -0.791445  0  2.054026  0
O  O262  1  0.53695982  0.03696667  0.21304268  1  -1.284303  0  -0.586663  -0.791436  0  2.054115  0
O  O263  1  0.78696374  0.46303616  0.46303777  1  -1.284324  0  -0.586795  -0.7914  0  2.054139  0
O  O264  1  0.71304280  0.03696042  0.03696656  1  -1.283861  0  -0.586652  -0.791429  0  2.054105  0
O  O265  1  0.78696337  0.28696389  0.46303672  1  -1.252294  0  -0.586762  -0.791332  0  2.054146  0
O  O266  1  0.53695987  0.21304618  0.21302755  1  -1.252265  0  -0.586618  -0.791396  0  2.053996  0
O  O267  1  0.96303749  0.46303581  0.28697027  1  -1.284168  0  -0.586672  -0.791382  0  2.05416  0
O  O268  1  0.71303152  0.03696110  0.21304228  1  -1.25226  0  -0.586666  -0.791379  0  2.054074  0
O  O269  1  0.78695904  0.46303895  0.28696795  1  -1.252297  0  -0.586692  -0.791426  0  2.054007  0
O  O270  1  0.96303712  0.28696254  0.46303665  1  -1.284334  0  -0.586651  -0.79133  0  2.054187  0
O  O271  1  0.53696540  0.21304084  0.03696158  1  -1.28423  0  -0.586706  -0.791379  0  2.054156  0
O  O272  1  0.28695670  0.78696996  0.96303820  1  -1.252375  0  -0.58667  -0.791412  0  2.054046  0
O  O273  1  0.03696255  0.71303567  0.71303758  1  -1.252238  0  -0.586769  -0.791344  0  2.054117  0
O  O274  1  0.46303756  0.96303564  0.78696265  1  -1.284307  0  -0.586791  -0.791427  0  2.054145  0
O  O275  1  0.21303613  0.53696325  0.53696268  1  -1.28423  0  -0.586752  -0.791323  0  2.054257  0
O  O276  1  0.28696338  0.96303665  0.96303587  1  -1.284305  0  -0.58679  -0.791351  0  2.05416  0
O  O277  1  0.21304073  0.71303218  0.53696417  1  -1.252566  0  -0.586724  -0.791381  0  2.054102  0
O  O278  1  0.46303986  0.78695524  0.78697103  1  -1.252386  0  -0.586661  -0.791444  0  2.053978  0
O  O279  1  0.03696598  0.53696072  0.71304269  1  -1.283931  0  -0.586684  -0.791454  0  2.054098  0
O  O280  1  0.28696581  0.96303792  0.78696044  1  -1.252403  0  -0.586739  -0.791354  0  2.054129  0
O  O281  1  0.21303755  0.53696150  0.71303606  1  -1.252529  0  -0.586788  -0.791341  0  2.054122  0
O  O282  1  0.03695999  0.71304492  0.53696644  1  -1.283839  0  -0.586655  -0.791417  0  2.054078  0
O  O283  1  0.46303617  0.78696352  0.96303751  1  -1.284324  0  -0.586812  -0.791438  0  2.054097  0
O  O284  1  0.61888605  0.38111646  0.74999774  1  -1.094686  0  -0.280184  -0.259987  0  2.763692  0
O  O285  1  0.74999985  0.38111511  0.11888643  1  -1.093108  0  -0.280223  -0.260043  0  2.763758  0
O  O286  1  0.25000166  0.24999959  0.11888426  1  -1.092825  0  -0.280189  -0.260011  0  2.763693  0
O  O287  1  0.61888449  0.75000175  0.24999804  1  -1.09285  0  -0.280166  -0.259969  0  2.763705  0
O  O288  1  0.88111455  0.11888522  0.25000029  1  -1.093172  0  -0.280204  -0.260014  0  2.763724  0
O  O289  1  0.25000069  0.11888385  0.38111491  1  -1.094889  0  -0.280195  -0.26  0  2.763651  0
O  O290  1  0.74999990  0.74999804  0.38111548  1  -1.092843  0  -0.280179  -0.260013  0  2.763757  0
O  O291  1  0.88111537  0.25000223  0.74999651  1  -1.092869  0  -0.280183  -0.259986  0  2.763666  0
O  O292  1  0.61888493  0.25000244  0.38111474  1  -1.09309  0  -0.280205  -0.260026  0  2.763752  0
O  O293  1  0.88111664  0.74999872  0.11888607  1  -1.094883  0  -0.280172  -0.259979  0  2.763679  0
O  O294  1  0.24999755  0.38111476  0.25000236  1  -1.092836  0  -0.280196  -0.260022  0  2.763718  0
O  O295  1  0.74999796  0.11888588  0.74999983  1  -1.092854  0  -0.280187  -0.26001  0  2.763712  0
O  O296  1  0.38111453  0.61888474  0.25000021  1  -1.094921  0  -0.280188  -0.260025  0  2.763726  0
O  O297  1  0.24999714  0.61888682  0.88111571  1  -1.092756  0  -0.280179  -0.259969  0  2.763701  0
O  O298  1  0.75000044  0.75000096  0.88111413  1  -1.092812  0  -0.280195  -0.260018  0  2.763699  0
O  O299  1  0.38111595  0.25000039  0.74999844  1  -1.092844  0  -0.280187  -0.260002  0  2.763718  0
O  O300  1  0.11888678  0.88111565  0.74999788  1  -1.093127  0  -0.280184  -0.260034  0  2.76372  0
O  O301  1  0.74999810  0.88111663  0.61888554  1  -1.094693  0  -0.280169  -0.259994  0  2.763687  0
O  O302  1  0.24999869  0.24999901  0.61888596  1  -1.092859  0  -0.280184  -0.259989  0  2.763741  0
O  O303  1  0.11888443  0.75000143  0.25000041  1  -1.092834  0  -0.280196  -0.260001  0  2.763678  0
O  O304  1  0.38111614  0.74999709  0.61888637  1  -1.093125  0  -0.280166  -0.259971  0  2.763714  0
O  O305  1  0.11888575  0.24999781  0.88111606  1  -1.09472  0  -0.280199  -0.259991  0  2.763722  0
O  O306  1  0.75000053  0.61888395  0.75000058  1  -1.092823  0  -0.280177  -0.259998  0  2.763695  0
O  O307  1  0.24999882  0.88111476  0.25000248  1  -1.092822  0  -0.280172  -0.259941  0  2.763729  0
O  O308  1  0.68946326  0.29469194  0.64258285  1  -1.19301  0  -0.3864  -0.637924  0  2.295419  0
O  O309  1  0.62673644  0.31053814  0.20530707  1  -1.188929  0  -0.386386  -0.637901  0  2.295376  0
O  O310  1  0.14258515  0.37326216  0.18946027  1  -1.183564  0  -0.386346  -0.637866  0  2.295488  0
O  O311  1  0.70530968  0.85741463  0.12673892  1  -1.186002  0  -0.386421  -0.637954  0  2.295281  0
O  O312  1  0.79469045  0.18946392  0.37326153  1  -1.188989  0  -0.386413  -0.637924  0  2.295396  0
O  O313  1  0.35741481  0.20530916  0.31053829  1  -1.192985  0  -0.386414  -0.637921  0  2.295232  0
O  O314  1  0.87326126  0.64258139  0.29469307  1  -1.186024  0  -0.386373  -0.63792  0  2.295422  0
O  O315  1  0.81053558  0.12673929  0.85741722  1  -1.183618  0  -0.38635  -0.637852  0  2.295469  0
O  O316  1  0.68946049  0.64258518  0.37326132  1  -1.18358  0  -0.386381  -0.637893  0  2.295488  0
O  O317  1  0.70531014  0.31053676  0.85741485  1  -1.192997  0  -0.386414  -0.637959  0  2.295245  0
O  O318  1  0.87326095  0.29469030  0.18946527  1  -1.188984  0  -0.386376  -0.637927  0  2.295368  0
O  O319  1  0.35741582  0.12673799  0.20530803  1  -1.18596  0  -0.386401  -0.637911  0  2.295302  0
O  O320  1  0.14258514  0.18946088  0.29469325  1  -1.193071  0  -0.386377  -0.637892  0  2.295479  0
O  O321  1  0.62673846  0.85741669  0.31053557  1  -1.183642  0  -0.386412  -0.637937  0  2.295403  0
O  O322  1  0.79469116  0.37326283  0.64258312  1  -1.185753  0  -0.386421  -0.637967  0  2.295337  0
O  O323  1  0.81053697  0.20530926  0.12673869  1  -1.189002  0  -0.386362  -0.637888  0  2.295543  0
O  O324  1  0.68946317  0.37326167  0.29469172  1  -1.188986  0  -0.38641  -0.637929  0  2.295418  0
O  O325  1  0.81053871  0.85741453  0.20530841  1  -1.192981  0  -0.386382  -0.637902  0  2.295395  0
O  O326  1  0.35741710  0.31053731  0.12673884  1  -1.183616  0  -0.386339  -0.637825  0  2.295536  0
O  O327  1  0.70530752  0.12673907  0.31053639  1  -1.188976  0  -0.386357  -0.63787  0  2.295522  0
O  O328  1  0.62673778  0.20531060  0.85741564  1  -1.185872  0  -0.38639  -0.637928  0  2.295171  0
O  O329  1  0.87326145  0.18946075  0.64258348  1  -1.18354  0  -0.386364  -0.637869  0  2.295434  0
O  O330  1  0.79469124  0.64258345  0.18946394  1  -1.193024  0  -0.386417  -0.637927  0  2.295337  0
O  O331  1  0.14258391  0.29469103  0.37326277  1  -1.185964  0  -0.386416  -0.637949  0  2.29528  0
O  O332  1  0.31053701  0.70530894  0.35741572  1  -1.193015  0  -0.386379  -0.637886  0  2.295469  0
O  O333  1  0.37326189  0.68946513  0.79469172  1  -1.188974  0  -0.386401  -0.637984  0  2.295363  0
O  O334  1  0.85741713  0.62673858  0.81053644  1  -1.1836  0  -0.386357  -0.63786  0  2.295385  0
O  O335  1  0.29469234  0.14258369  0.87326112  1  -1.185994  0  -0.386373  -0.63788  0  2.295475  0
O  O336  1  0.20530901  0.81053723  0.62673958  1  -1.188985  0  -0.386349  -0.637883  0  2.295549  0
O  O337  1  0.64258505  0.79469239  0.68946135  1  -1.193034  0  -0.386389  -0.637934  0  2.295322  0
O  O338  1  0.12673940  0.35741448  0.70530881  1  -1.186037  0  -0.386361  -0.637874  0  2.29558  0
O  O339  1  0.18946195  0.87326209  0.14258491  1  -1.183568  0  -0.386418  -0.637912  0  2.295278  0
O  O340  1  0.31053839  0.35741647  0.62673788  1  -1.183524  0  -0.386385  -0.637889  0  2.295242  0
O  O341  1  0.29469134  0.68946210  0.14258519  1  -1.193021  0  -0.386401  -0.637912  0  2.295365  0
O  O342  1  0.12673758  0.70530884  0.81053811  1  -1.188914  0  -0.386412  -0.637934  0  2.295235  0
O  O343  1  0.64258351  0.87326196  0.79469242  1  -1.185965  0  -0.386386  -0.637917  0  2.295404  0
O  O344  1  0.85741518  0.81053789  0.70530804  1  -1.192998  0  -0.386374  -0.637894  0  2.295417  0
O  O345  1  0.37326141  0.14258379  0.68946447  1  -1.183607  0  -0.386438  -0.637995  0  2.295244  0
O  O346  1  0.20530847  0.62673958  0.35741589  1  -1.185919  0  -0.386405  -0.637953  0  2.2954  0
O  O347  1  0.18946472  0.79469197  0.87326077  1  -1.188976  0  -0.386384  -0.637919  0  2.295423  0
O  O348  1  0.31053845  0.62673732  0.70530938  1  -1.188911  0  -0.38641  -0.637945  0  2.295243  0
O  O349  1  0.18946238  0.14258286  0.79469351  1  -1.193033  0  -0.386417  -0.637949  0  2.295315  0
O  O350  1  0.64258483  0.68946092  0.87326205  1  -1.183557  0  -0.38635  -0.637851  0  2.295455  0
O  O351  1  0.29469342  0.87326033  0.68946366  1  -1.188968  0  -0.386346  -0.637866  0  2.295561  0
O  O352  1  0.37326099  0.79469311  0.14258360  1  -1.185992  0  -0.386369  -0.63787  0  2.295481  0
O  O353  1  0.12673921  0.81053404  0.35741880  1  -1.183575  0  -0.386412  -0.637977  0  2.295239  0
O  O354  1  0.20530940  0.35741456  0.81053713  1  -1.193038  0  -0.386384  -0.637946  0  2.295465  0
O  O355  1  0.85741404  0.70530862  0.62673871  1  -1.185979  0  -0.386371  -0.63788  0  2.295456  0
O  O356  1  0.58666907  0.37677823  0.57757590  1  -1.181185  0  -0.326264  -0.581106  0  2.315135  0
O  O357  1  0.54102120  0.41333527  0.12322028  1  -1.18515  0  -0.326292  -0.581099  0  2.314934  0
O  O358  1  0.07757262  0.45897698  0.08666963  1  -1.189084  0  -0.326319  -0.581154  0  2.315055  0
O  O359  1  0.62321954  0.92242641  0.04102427  1  -1.188699  0  -0.326281  -0.581103  0  2.315129  0
O  O360  1  0.87677774  0.08667075  0.45897562  1  -1.185168  0  -0.32626  -0.581055  0  2.315125  0
O  O361  1  0.42242693  0.12322152  0.41332735  1  -1.181198  0  -0.32629  -0.58112  0  2.315128  0
O  O362  1  0.95897627  0.57757769  0.37677742  1  -1.188735  0  -0.326318  -0.581191  0  2.315196  0
O  O363  1  0.91333099  0.04102449  0.92242363  1  -1.188982  0  -0.326254  -0.581075  0  2.315054  0
O  O364  1  0.58666912  0.57757453  0.45897569  1  -1.18899  0  -0.326281  -0.581107  0  2.315085  0
O  O365  1  0.62322159  0.41332875  0.92242432  1  -1.181643  0  -0.326311  -0.581168  0  2.315239  0
O  O366  1  0.95897632  0.37677914  0.08666791  1  -1.185194  0  -0.326275  -0.581123  0  2.315218  0
O  O367  1  0.42242588  0.04102278  0.12322015  1  -1.188687  0  -0.326304  -0.581149  0  2.315088  0
O  O368  1  0.07757275  0.08666891  0.37678211  1  -1.181004  0  -0.326321  -0.581177  0  2.315061  0
O  O369  1  0.54102294  0.92242321  0.41333227  1  -1.188989  0  -0.326262  -0.581108  0  2.315003  0
O  O370  1  0.87678001  0.45897925  0.57757414  1  -1.18874  0  -0.326288  -0.581091  0  2.315018  0
O  O371  1  0.91333137  0.12322095  0.04102370  1  -1.185129  0  -0.32627  -0.581106  0  2.315081  0
O  O372  1  0.58666775  0.45897870  0.37678034  1  -1.185093  0  -0.32629  -0.581098  0  2.315012  0
O  O373  1  0.91333071  0.92242689  0.12321954  1  -1.181003  0  -0.326294  -0.581122  0  2.315145  0
O  O374  1  0.42242324  0.41333168  0.04102467  1  -1.189038  0  -0.326279  -0.581092  0  2.315236  0
O  O375  1  0.62322075  0.04102474  0.41333062  1  -1.185148  0  -0.326295  -0.581165  0  2.315201  0
O  O376  1  0.54102452  0.12322061  0.92242656  1  -1.188722  0  -0.326289  -0.581119  0  2.315156  0
O  O377  1  0.95897723  0.08666733  0.57757474  1  -1.189074  0  -0.326303  -0.581139  0  2.315041  0
O  O378  1  0.87677972  0.57757424  0.08667109  1  -1.180986  0  -0.326241  -0.581052  0  2.315208  0
O  O379  1  0.07757374  0.37677854  0.45897977  1  -1.188726  0  -0.326277  -0.581123  0  2.314962  0
O  O380  1  0.41333174  0.62322212  0.42242268  1  -1.181176  0  -0.326265  -0.581089  0  2.315084  0
O  O381  1  0.45897538  0.58666949  0.87677745  1  -1.185197  0  -0.326307  -0.581188  0  2.315204  0
O  O382  1  0.92242273  0.54102331  0.91333180  1  -1.189039  0  -0.326251  -0.581081  0  2.315178  0
O  O383  1  0.37678022  0.07757505  0.95897621  1  -1.188698  0  -0.326289  -0.581114  0  2.315154  0
O  O384  1  0.12322039  0.91332908  0.54102416  1  -1.185164  0  -0.326286  -0.58113  0  2.315113  0
O  O385  1  0.57757243  0.87678170  0.58666914  1  -1.181222  0  -0.326322  -0.581149  0  2.315037  0
O  O386  1  0.04102410  0.42242654  0.62322101  1  -1.188722  0  -0.326305  -0.581134  0  2.315102  0
O  O387  1  0.08667016  0.95897621  0.07757623  1  -1.189009  0  -0.326283  -0.581093  0  2.315136  0
O  O388  1  0.41333115  0.42242635  0.54102289  1  -1.189086  0  -0.326304  -0.581136  0  2.315073  0
O  O389  1  0.37677953  0.58667191  0.07757364  1  -1.181147  0  -0.326322  -0.581181  0  2.315134  0
O  O390  1  0.04102203  0.62321983  0.91333249  1  -1.185217  0  -0.326295  -0.58113  0  2.315112  0
O  O391  1  0.57757429  0.95897802  0.87677927  1  -1.188698  0  -0.32629  -0.58111  0  2.315128  0
O  O392  1  0.92242425  0.91333087  0.62322083  1  -1.181184  0  -0.326302  -0.581168  0  2.315166  0
O  O393  1  0.45897598  0.07757741  0.58666924  1  -1.189031  0  -0.326251  -0.581082  0  2.315151  0
O  O394  1  0.12322090  0.54102444  0.42242429  1  -1.188723  0  -0.326266  -0.581094  0  2.31522  0
O  O395  1  0.08666860  0.87677855  0.95897590  1  -1.185201  0  -0.326277  -0.581117  0  2.315142  0
O  O396  1  0.41333072  0.54102255  0.62322033  1  -1.185098  0  -0.326305  -0.58116  0  2.315068  0
O  O397  1  0.08666746  0.07757297  0.87678215  1  -1.181221  0  -0.32632  -0.581194  0  2.31501  0
O  O398  1  0.57757493  0.58666819  0.95897703  1  -1.189054  0  -0.3263  -0.581118  0  2.315098  0
O  O399  1  0.37678104  0.95897550  0.58666839  1  -1.185174  0  -0.326285  -0.581102  0  2.315112  0
O  O400  1  0.45897668  0.87678012  0.07757520  1  -1.188719  0  -0.326292  -0.581115  0  2.315088  0
O  O401  1  0.04102355  0.91333190  0.42242233  1  -1.189034  0  -0.326307  -0.581177  0  2.315146  0
O  O402  1  0.12322145  0.42242430  0.91332957  1  -1.181146  0  -0.326309  -0.581165  0  2.315181  0
O  O403  1  0.92242770  0.62321919  0.54102343  1  -1.188681  0  -0.326322  -0.581142  0  2.315099  0
