# generated using pymatgen
data_CdH54C43N4O9
_symmetry_space_group_name_H-M   'P 1'
_cell_length_a   13.80035841
_cell_length_b   15.08861311
_cell_length_c   19.42866886
_cell_angle_alpha   89.99992828
_cell_angle_beta   90.00020607
_cell_angle_gamma   90.00004800
_symmetry_Int_Tables_number   1
_chemical_formula_structural   CdH54C43N4O9
_chemical_formula_sum   'Cd4 H216 C172 N16 O36'
_cell_volume   4045.59808216
_cell_formula_units_Z   4
loop_
 _symmetry_equiv_pos_site_id
 _symmetry_equiv_pos_as_xyz
  1  'x, y, z'
loop_
 _atom_site_type_symbol
 _atom_site_label
 _atom_site_symmetry_multiplicity
 _atom_site_fract_x
 _atom_site_fract_y
 _atom_site_fract_z
 _atom_site_occupancy
 _atom_site_pbe_bader_charge
 _atom_site_pbe_bader_spin_density
 _atom_site_pbe_cm5_charge
 _atom_site_pbe_ddec_charge
 _atom_site_pbe_ddec_spin_density
 _atom_site_pbe_ddec_sum_bond_order
 _atom_site_pbe_magmom
Cd  Cd0  1  0.80623736  0.13901098  0.96450348  1  1.199227  0  0.760715  0.810664  0  2.087784  0
Cd  Cd1  1  0.69376326  0.86098691  0.46450218  1  1.199213  0  0.760738  0.810729  0  2.087761  0
Cd  Cd2  1  0.19376183  0.63901265  0.53549571  1  1.199212  0  0.76074  0.810781  0  2.087659  0
Cd  Cd3  1  0.30623723  0.36098887  0.03549776  1  1.199206  0  0.760717  0.810676  0  2.087798  0
H  H4  1  0.75929359  0.02976438  0.09835921  1  0.639498  0  0.292897  0.340006  0  1.017163  0
H  H5  1  0.74070518  0.97023808  0.59835953  1  0.639431  0  0.292895  0.339985  0  1.017178  0
H  H6  1  0.24070587  0.52976549  0.40164002  1  0.639501  0  0.292887  0.339964  0  1.017188  0
H  H7  1  0.25929358  0.47023477  0.90164190  1  0.639489  0  0.292863  0.33996  0  1.017227  0
H  H8  1  0.74040140  0.17153287  0.10242065  1  0.081525  0  0.103279  0.048749  0  1.018366  0
H  H9  1  0.75959811  0.82847025  0.60242270  1  0.081548  0  0.103314  0.048762  0  1.018345  0
H  H10  1  0.25959892  0.67153267  0.39757639  1  0.081554  0  0.103302  0.048747  0  1.018441  0
H  H11  1  0.24040052  0.32846760  0.89757940  1  0.081543  0  0.103286  0.048763  0  1.018313  0
H  H12  1  0.58806902  0.21563365  0.05289310  1  0.064565  0  0.111519  0.074775  0  1.024062  0
H  H13  1  0.91193024  0.78436755  0.55289456  1  0.064274  0  0.111509  0.074762  0  1.024077  0
H  H14  1  0.41192989  0.71563416  0.44710647  1  0.064555  0  0.111499  0.07472  0  1.024101  0
H  H15  1  0.08806835  0.28436603  0.94710706  1  0.064577  0  0.111543  0.074827  0  1.024036  0
H  H16  1  0.59915341  0.14005281  0.88622302  1  0.024462  0  0.104331  0.088047  0  1.012775  0
H  H17  1  0.90084681  0.85994852  0.38622380  1  0.02446  0  0.104329  0.088073  0  1.012763  0
H  H18  1  0.40084288  0.64005318  0.61377668  1  0.024396  0  0.104319  0.088069  0  1.01271  0
H  H19  1  0.09915367  0.35994622  0.11377718  1  0.024453  0  0.104313  0.088031  0  1.01275  0
H  H20  1  0.59438197  0.23531401  0.94038777  1  0.088856  0  0.104345  0.088936  0  1.012391  0
H  H21  1  0.90561780  0.76468658  0.44038762  1  0.088877  0  0.104337  0.088919  0  1.012442  0
H  H22  1  0.40561513  0.73531381  0.55961184  1  0.088845  0  0.104352  0.088941  0  1.012319  0
H  H23  1  0.09438188  0.26468502  0.05961138  1  0.08926  0  0.104344  0.088872  0  1.012403  0
H  H24  1  0.84342917  0.08491015  0.69681460  1  0.123166  0  0.110412  0.124596  0  1.041687  0
H  H25  1  0.65657372  0.91508884  0.19681367  1  0.123168  0  0.110423  0.124563  0  1.041751  0
H  H26  1  0.15657142  0.58490871  0.80318618  1  0.123131  0  0.110398  0.124541  0  1.041743  0
H  H27  1  0.34342754  0.41509105  0.30318570  1  0.123142  0  0.110421  0.124585  0  1.041685  0
H  H28  1  0.62232502  0.04230149  0.22945345  1  0.046104  0  0.102418  0.110177  0  1.050135  0
H  H29  1  0.87767514  0.95769943  0.72945773  1  0.0461  0  0.102435  0.110177  0  1.050119  0
H  H30  1  0.37767953  0.54230159  0.27054423  1  0.045531  0  0.102434  0.110229  0  1.050087  0
H  H31  1  0.12232144  0.45769822  0.77054629  1  0.046119  0  0.102418  0.110172  0  1.050113  0
H  H32  1  0.80455834  0.30697567  0.61934233  1  0.005647  0  0.100043  0.042853  0  0.990542  0
H  H33  1  0.69544053  0.69302145  0.11934223  1  0.005607  0  0.100041  0.042881  0  0.990525  0
H  H34  1  0.19544172  0.80697612  0.88065669  1  0.005663  0  0.100066  0.042877  0  0.990527  0
H  H35  1  0.30456053  0.19302550  0.38065633  1  0.005692  0  0.100065  0.042867  0  0.990562  0
H  H36  1  0.45562255  0.14603207  0.10057302  1  0.015824  0  0.091751  0.098487  0  1.002224  0
H  H37  1  0.04437612  0.85397000  0.60057501  1  0.015844  0  0.091751  0.098462  0  1.002282  0
H  H38  1  0.54437557  0.64603209  0.39942661  1  0.015686  0  0.091726  0.098463  0  1.002304  0
H  H39  1  0.95562472  0.35396723  0.89942500  1  0.015671  0  0.091761  0.098506  0  1.002197  0
H  H40  1  0.51182322  0.04061219  0.10497798  1  0.015642  0  0.095265  0.104813  0  0.9859  0
H  H41  1  0.98817485  0.95939025  0.60497946  1  0.015708  0  0.095254  0.104799  0  0.985825  0
H  H42  1  0.48817552  0.54061218  0.39502228  1  0.015652  0  0.095254  0.10481  0  0.985867  0
H  H43  1  0.01182390  0.45938809  0.89502148  1  0.015624  0  0.095243  0.104798  0  0.985899  0
H  H44  1  0.84062882  0.05592925  0.82399626  1  0.138531  0  0.119601  0.099314  0  1.020285  0
H  H45  1  0.65937181  0.94406953  0.32399530  1  0.138498  0  0.119585  0.099259  0  1.020351  0
H  H46  1  0.15936956  0.55592669  0.67600404  1  0.138468  0  0.11957  0.099227  0  1.020369  0
H  H47  1  0.34062731  0.44407394  0.17600353  1  0.138486  0  0.119579  0.099277  0  1.020365  0
H  H48  1  0.66174128  0.98534792  0.01919468  1  0.072164  0  0.102625  0.079171  0  1.050763  0
H  H49  1  0.83825781  0.01465135  0.51919412  1  0.072169  0  0.102623  0.07916  0  1.050744  0
H  H50  1  0.33825642  0.48534919  0.48080462  1  0.072139  0  0.10261  0.079124  0  1.050793  0
H  H51  1  0.16174054  0.51465095  0.98080673  1  0.072209  0  0.102645  0.079222  0  1.05069  0
H  H52  1  0.66028012  0.00223298  0.92839538  1  0.053953  0  0.102849  0.085455  0  1.000933  0
H  H53  1  0.83971814  0.99776696  0.42839484  1  0.053933  0  0.102881  0.085486  0  1.000957  0
H  H54  1  0.33971749  0.50223337  0.57160343  1  0.054039  0  0.102894  0.085501  0  1.000932  0
H  H55  1  0.16027741  0.49776543  0.07160497  1  0.053967  0  0.10286  0.085524  0  1.000926  0
H  H56  1  0.66879315  0.31074445  0.09402670  1  0.119765  0  0.103413  0.123007  0  1.060308  0
H  H57  1  0.83120921  0.68925935  0.59402599  1  0.119766  0  0.103389  0.122983  0  1.060243  0
H  H58  1  0.33121019  0.81074098  0.40597483  1  0.119761  0  0.103382  0.123023  0  1.060212  0
H  H59  1  0.16879509  0.18925729  0.90597418  1  0.119728  0  0.103402  0.122981  0  1.060305  0
H  H60  1  0.72704357  0.11866743  0.60434387  1  0.082213  0  0.113126  0.074569  0  0.992287  0
H  H61  1  0.77295668  0.88132972  0.10434379  1  0.082267  0  0.113152  0.074598  0  0.992258  0
H  H62  1  0.27295850  0.61866923  0.89565688  1  0.082242  0  0.113128  0.074544  0  0.992293  0
H  H63  1  0.22704093  0.38133104  0.39565716  1  0.082242  0  0.113135  0.074547  0  0.992313  0
H  H64  1  0.69489746  0.46398321  0.89201082  1  0.094714  0  0.110713  0.120475  0  0.995134  0
H  H65  1  0.80510496  0.53601679  0.39201167  1  0.094687  0  0.110738  0.120504  0  0.995179  0
H  H66  1  0.30510057  0.96398286  0.60798753  1  0.094674  0  0.110721  0.120485  0  0.995097  0
H  H67  1  0.19489523  0.03602119  0.10798807  1  0.094551  0  0.110704  0.120461  0  0.995169  0
H  H68  1  0.72465119  0.38591061  0.68020895  1  0.069489  0  0.102435  0.107592  0  1.070417  0
H  H69  1  0.77534727  0.61408708  0.18021016  1  0.069489  0  0.10244  0.107589  0  1.070474  0
H  H70  1  0.27535040  0.88590857  0.81979000  1  0.069503  0  0.10245  0.107614  0  1.070399  0
H  H71  1  0.22465010  0.11408917  0.31978951  1  0.06949  0  0.102454  0.107625  0  1.070425  0
H  H72  1  0.56505435  0.10034912  0.34219756  1  0.098888  0  0.105014  0.075183  0  1.030137  0
H  H73  1  0.93494420  0.89965162  0.84220154  1  0.098848  0  0.105011  0.075179  0  1.030149  0
H  H74  1  0.43494662  0.60035144  0.15780006  1  0.098805  0  0.10497  0.07512  0  1.030083  0
H  H75  1  0.06505450  0.39964922  0.65780203  1  0.098812  0  0.104994  0.075148  0  1.030132  0
H  H76  1  0.54390717  0.39956086  0.32470262  1  0.095477  0  0.105863  0.116037  0  1.003377  0
H  H77  1  0.95609347  0.60044124  0.82470386  1  0.095493  0  0.105851  0.115946  0  1.003342  0
H  H78  1  0.45609263  0.89956382  0.17529883  1  0.095426  0  0.105813  0.115943  0  1.003403  0
H  H79  1  0.04390858  0.10043680  0.67529846  1  0.095421  0  0.105876  0.116065  0  1.003337  0
H  H80  1  0.75178007  0.31506892  0.93024056  1  0.117084  0  0.103642  0.112878  0  1.055029  0
H  H81  1  0.74821820  0.68492969  0.43024060  1  0.117074  0  0.103638  0.112887  0  1.055006  0
H  H82  1  0.24821783  0.81506858  0.56976052  1  0.117091  0  0.10364  0.112875  0  1.055039  0
H  H83  1  0.25178285  0.18493288  0.06975951  1  0.117067  0  0.103665  0.112926  0  1.055069  0
H  H84  1  0.48545778  0.17808037  0.58002174  1  0.025257  0  0.098111  0.072698  0  0.994758  0
H  H85  1  0.01454151  0.82191710  0.08002260  1  0.025241  0  0.098133  0.072693  0  0.994755  0
H  H86  1  0.51454217  0.67808166  0.91997741  1  0.025231  0  0.098119  0.072663  0  0.994784  0
H  H87  1  0.98545677  0.32191697  0.41997687  1  0.025197  0  0.098116  0.072659  0  0.994766  0
H  H88  1  0.56484633  0.09331115  0.60935534  1  0.06745  0  0.103283  0.087841  0  1.00214  0
H  H89  1  0.93515466  0.90668532  0.10935565  1  0.067517  0  0.103314  0.087887  0  1.002074  0
H  H90  1  0.43515571  0.59331309  0.89064338  1  0.067456  0  0.103296  0.087862  0  1.002118  0
H  H91  1  0.06484442  0.40668520  0.39064322  1  0.067485  0  0.103317  0.087888  0  1.002112  0
H  H92  1  0.57010703  0.51404264  0.23234476  1  0.079521  0  0.104857  0.116524  0  1.012344  0
H  H93  1  0.92989531  0.48596027  0.73234346  1  0.079583  0  0.104895  0.116499  0  1.012363  0
H  H94  1  0.42989459  0.01404166  0.26765964  1  0.079534  0  0.104873  0.116492  0  1.012318  0
H  H95  1  0.07010347  0.98595815  0.76765797  1  0.079522  0  0.104861  0.116496  0  1.012328  0
H  H96  1  0.65667525  0.52306091  0.01300354  1  0.049016  0  0.099938  0.101491  0  0.990296  0
H  H97  1  0.84332454  0.47694037  0.51300511  1  0.049044  0  0.099941  0.101487  0  0.990358  0
H  H98  1  0.34332348  0.02305885  0.48699931  1  0.048998  0  0.09994  0.101473  0  0.990295  0
H  H99  1  0.15667496  0.97694194  0.98700044  1  0.048996  0  0.099972  0.101523  0  0.990292  0
H  H100  1  0.59497537  0.41824607  0.01967921  1  0.104268  0  0.104281  0.121942  0  0.988409  0
H  H101  1  0.90502228  0.58175585  0.51967673  1  0.104239  0  0.104291  0.122014  0  0.988292  0
H  H102  1  0.40502155  0.91824586  0.48032274  1  0.104188  0  0.104289  0.121996  0  0.98831  0
H  H103  1  0.09497468  0.08175627  0.98032406  1  0.104129  0  0.104278  0.122032  0  0.988265  0
H  H104  1  0.72234458  0.42549727  0.03864207  1  0.057745  0  0.094828  0.097218  0  1.029789  0
H  H105  1  0.77765461  0.57450330  0.53864338  1  0.057719  0  0.09482  0.097195  0  1.029831  0
H  H106  1  0.27765452  0.92549633  0.46135884  1  0.057699  0  0.094819  0.097199  0  1.029832  0
H  H107  1  0.22234379  0.07450318  0.96135947  1  0.057743  0  0.094826  0.097235  0  1.029846  0
H  H108  1  0.89869773  0.20082816  0.56032560  1  0.556662  0  0.30363  0.322786  0  0.962617  0
H  H109  1  0.60130229  0.79917171  0.06032515  1  0.556643  0  0.303619  0.322816  0  0.962598  0
H  H110  1  0.10130079  0.70082910  0.93967302  1  0.556678  0  0.303626  0.322829  0  0.962579  0
H  H111  1  0.39869886  0.29917309  0.43967125  1  0.556713  0  0.303644  0.322811  0  0.962646  0
H  H112  1  0.79150472  0.25110052  0.49588870  1  -0.008199  0  0.088994  0.081889  0  0.996472  0
H  H113  1  0.70849460  0.74889733  0.99588812  1  -0.008251  0  0.088962  0.081824  0  0.996556  0
H  H114  1  0.20849711  0.75110092  0.00411187  1  -0.008148  0  0.089002  0.081894  0  0.996449  0
H  H115  1  0.29150324  0.24889800  0.50411096  1  -0.008247  0  0.08899  0.081872  0  0.996524  0
H  H116  1  0.79192856  0.13368946  0.49309906  1  0.024852  0  0.090786  0.089166  0  1.042389  0
H  H117  1  0.70807147  0.86630838  0.99309889  1  0.024897  0  0.09076  0.089124  0  1.042459  0
H  H118  1  0.20807316  0.63368986  0.00690110  1  0.024886  0  0.090763  0.089125  0  1.04244  0
H  H119  1  0.29192937  0.36630905  0.50690059  1  0.024883  0  0.090742  0.08908  0  1.042403  0
H  H120  1  0.66330709  0.18462325  0.41528243  1  0.055238  0  0.101026  0.078379  0  1.013603  0
H  H121  1  0.83669182  0.81537539  0.91528314  1  0.055252  0  0.100956  0.078271  0  1.013733  0
H  H122  1  0.33669541  0.68462428  0.08471614  1  0.055271  0  0.100993  0.078387  0  1.013728  0
H  H123  1  0.16330680  0.31537649  0.58471639  1  0.055268  0  0.100968  0.078291  0  1.013703  0
H  H124  1  0.53752501  0.29052157  0.45952817  1  0.038513  0  0.088034  0.079971  0  1.055768  0
H  H125  1  0.96247340  0.70947567  0.95952725  1  0.038509  0  0.08801  0.079961  0  1.055773  0
H  H126  1  0.46247613  0.79052343  0.04047184  1  0.038539  0  0.088016  0.079958  0  1.055772  0
H  H127  1  0.03752585  0.20947675  0.54047238  1  0.038503  0  0.088031  0.079989  0  1.055709  0
H  H128  1  0.65362201  0.33761010  0.45707522  1  0.017177  0  0.089036  0.090506  0  0.982126  0
H  H129  1  0.84637639  0.66238847  0.95707508  1  0.017133  0  0.089034  0.090489  0  0.982108  0
H  H130  1  0.34637918  0.83761055  0.04292475  1  0.017183  0  0.089049  0.090518  0  0.982118  0
H  H131  1  0.15362282  0.16238963  0.54292512  1  0.017146  0  0.089028  0.090493  0  0.982146  0
H  H132  1  0.51617914  0.12647798  0.46800075  1  0.062985  0  0.105413  0.099577  0  0.963994  0
H  H133  1  0.98382005  0.87351925  0.96800127  1  0.06302  0  0.105398  0.099544  0  0.963973  0
H  H134  1  0.48382186  0.62647855  0.03199839  1  0.062979  0  0.105408  0.099562  0  0.964002  0
H  H135  1  0.01617863  0.37352032  0.53199769  1  0.063007  0  0.105406  0.099564  0  0.963977  0
H  H136  1  0.66088228  0.35276117  0.57777829  1  0.00854  0  0.094745  0.066626  0  1.002916  0
H  H137  1  0.83911711  0.64723602  0.07777758  1  0.008787  0  0.094782  0.066703  0  1.002749  0
H  H138  1  0.33911855  0.85276232  0.92222172  1  0.008839  0  0.094742  0.066612  0  1.002913  0
H  H139  1  0.16088246  0.14723658  0.42222206  1  0.008791  0  0.094786  0.066681  0  1.002785  0
H  H140  1  0.53631015  0.32710270  0.57967586  1  0.059307  0  0.09776  0.068894  0  1.017764  0
H  H141  1  0.96368925  0.67289515  0.07967595  1  0.059304  0  0.097787  0.068906  0  1.017783  0
H  H142  1  0.46369066  0.82710395  0.92032315  1  0.059279  0  0.09778  0.068944  0  1.017742  0
H  H143  1  0.03631034  0.17289496  0.42032418  1  0.059293  0  0.097779  0.068891  0  1.017783  0
H  H144  1  0.38123363  0.05514901  0.00913439  1  0.022339  0  0.094302  0.064399  0  0.983111  0
H  H145  1  0.11876458  0.94485255  0.50913596  1  0.022357  0  0.094312  0.064376  0  0.983172  0
H  H146  1  0.61876441  0.55514961  0.49086585  1  0.022402  0  0.094317  0.064405  0  0.983079  0
H  H147  1  0.88123127  0.44484825  0.99086344  1  0.022393  0  0.094291  0.064343  0  0.983133  0
H  H148  1  0.43366716  0.12700382  0.90207773  1  0.049853  0  0.103536  0.090736  0  1.003421  0
H  H149  1  0.06633158  0.87299975  0.40207867  1  0.0497  0  0.103562  0.090793  0  1.003387  0
H  H150  1  0.56632912  0.62700302  0.59792352  1  0.049699  0  0.103553  0.090782  0  1.003371  0
H  H151  1  0.93366820  0.37299878  0.09792229  1  0.049683  0  0.103539  0.090719  0  1.003444  0
H  H152  1  0.49333562  0.97709124  0.92310611  1  0.013351  0  0.08977  0.085358  0  1.012992  0
H  H153  1  0.00666322  0.02290833  0.42310670  1  0.013387  0  0.089774  0.085348  0  1.012986  0
H  H154  1  0.50666098  0.47709196  0.57689326  1  0.013312  0  0.08978  0.085377  0  1.012994  0
H  H155  1  0.99333188  0.52290722  0.07689254  1  0.013379  0  0.089781  0.08539  0  1.012915  0
H  H156  1  0.50375766  0.93554939  0.00834765  1  0.063726  0  0.093226  0.09534  0  1.006149  0
H  H157  1  0.99623921  0.06445056  0.50834745  1  0.063714  0  0.093194  0.095253  0  1.006225  0
H  H158  1  0.49624000  0.43555010  0.49165171  1  0.063467  0  0.093204  0.095287  0  1.006198  0
H  H159  1  0.00375701  0.56444803  0.99165027  1  0.063469  0  0.093199  0.09531  0  1.006199  0
H  H160  1  0.63986731  0.60849232  0.69840915  1  0.054218  0  0.108983  0.120129  0  1.009223  0
H  H161  1  0.86013341  0.39150799  0.19840977  1  0.054208  0  0.108978  0.12008  0  1.009266  0
H  H162  1  0.36013330  0.10849058  0.80158955  1  0.054247  0  0.108996  0.120121  0  1.009257  0
H  H163  1  0.13986638  0.89150918  0.30158963  1  0.054242  0  0.108981  0.120112  0  1.009269  0
H  H164  1  0.58587514  0.50219295  0.68240804  1  0.03593  0  0.098372  0.098266  0  1.019765  0
H  H165  1  0.91412622  0.49780672  0.18240869  1  0.035922  0  0.09838  0.09824  0  1.019768  0
H  H166  1  0.41412537  0.00219188  0.81759025  1  0.035921  0  0.098379  0.098234  0  1.0198  0
H  H167  1  0.08587512  0.99780785  0.31759163  1  0.035907  0  0.098373  0.09825  0  1.019797  0
H  H168  1  0.71316311  0.52066389  0.66588828  1  0.072469  0  0.095955  0.0932  0  1.057161  0
H  H169  1  0.78683890  0.47933713  0.16588965  1  0.072131  0  0.09597  0.093203  0  1.057132  0
H  H170  1  0.28684032  0.02066138  0.83411206  1  0.072113  0  0.095973  0.093219  0  1.057116  0
H  H171  1  0.21316170  0.97933767  0.33410966  1  0.072131  0  0.095963  0.093209  0  1.057108  0
H  H172  1  0.52788488  0.30932420  0.81967891  1  -0.006179  0  0.081849  0.071684  0  1.006489  0
H  H173  1  0.97211573  0.69067923  0.31967850  1  -0.006123  0  0.08185  0.07166  0  1.006513  0
H  H174  1  0.47211591  0.80932253  0.68032217  1  -0.006158  0  0.081867  0.071709  0  1.006514  0
H  H175  1  0.02788533  0.19067809  0.18032161  1  -0.006157  0  0.081836  0.071667  0  1.006521  0
H  H176  1  0.41156904  0.26074977  0.81962989  1  -0.001382  0  0.082128  0.070141  0  0.997772  0
H  H177  1  0.08843218  0.73925195  0.31962999  1  -0.00141  0  0.082158  0.070126  0  0.997825  0
H  H178  1  0.58843244  0.76074886  0.68036969  1  -0.00141  0  0.082142  0.070147  0  0.99775  0
H  H179  1  0.91156892  0.23925148  0.18037059  1  -0.001373  0  0.082125  0.070143  0  0.997807  0
H  H180  1  0.50102298  0.36175455  0.69905711  1  0.013806  0  0.087072  0.050442  0  0.982035  0
H  H181  1  0.99897630  0.63824510  0.19905681  1  0.0138  0  0.087089  0.050471  0  0.98196  0
H  H182  1  0.49897859  0.86175469  0.80094186  1  0.013827  0  0.087077  0.050435  0  0.982038  0
H  H183  1  0.00102326  0.13824573  0.30094284  1  0.01379  0  0.087098  0.050566  0  0.981937  0
H  H184  1  0.32734984  0.36085782  0.65390402  1  0.025111  0  0.083291  0.119027  0  1.021233  0
H  H185  1  0.17265055  0.63914086  0.15390546  1  0.025311  0  0.083294  0.119063  0  1.021237  0
H  H186  1  0.67265100  0.86085868  0.84609443  1  0.025306  0  0.083305  0.119058  0  1.021267  0
H  H187  1  0.82735046  0.13914205  0.34609470  1  0.025165  0  0.083311  0.119093  0  1.021199  0
H  H188  1  0.29649207  0.28509996  0.72022251  1  0.039541  0  0.082927  0.114743  0  1.026214  0
H  H189  1  0.20350937  0.71489993  0.22022395  1  0.039517  0  0.082956  0.114789  0  1.026146  0
H  H190  1  0.70351087  0.78509897  0.77977705  1  0.039509  0  0.082974  0.114803  0  1.026126  0
H  H191  1  0.79649099  0.21490055  0.27977613  1  0.039522  0  0.082943  0.114789  0  1.026071  0
H  H192  1  0.38078826  0.25335889  0.65582605  1  0.004164  0  0.078504  0.102844  0  1.038925  0
H  H193  1  0.11921213  0.74664177  0.15582570  1  0.004142  0  0.078487  0.102841  0  1.038936  0
H  H194  1  0.61921248  0.75336038  0.84417457  1  0.004184  0  0.078502  0.102879  0  1.038925  0
H  H195  1  0.88078898  0.24664168  0.34417436  1  0.004538  0  0.078492  0.102855  0  1.038924  0
H  H196  1  0.54070687  0.14672015  0.79260510  1  0.028763  0  0.075352  0.096342  0  1.077429  0
H  H197  1  0.95929506  0.85328200  0.29260398  1  0.029638  0  0.075343  0.096328  0  1.077412  0
H  H198  1  0.45929305  0.64671909  0.70739459  1  0.029575  0  0.075368  0.096355  0  1.077441  0
H  H199  1  0.04070615  0.35328282  0.20739546  1  0.029614  0  0.07535  0.09633  0  1.07737  0
H  H200  1  0.57824777  0.21130468  0.72057033  1  0.072796  0  0.076267  0.098449  0  1.085985  0
H  H201  1  0.92175451  0.78869758  0.22056866  1  0.072812  0  0.076281  0.098461  0  1.085935  0
H  H202  1  0.42175366  0.71130480  0.77943084  1  0.07282  0  0.076285  0.098443  0  1.085949  0
H  H203  1  0.07824736  0.28869698  0.27943187  1  0.072792  0  0.076258  0.098401  0  1.085982  0
H  H204  1  0.46353623  0.15969950  0.72138499  1  0.002305  0  0.082351  0.112586  0  1.021619  0
H  H205  1  0.03646666  0.84030238  0.22138331  1  0.002207  0  0.082388  0.112598  0  1.021687  0
H  H206  1  0.53646442  0.65969904  0.77861676  1  0.00227  0  0.082365  0.112556  0  1.02169  0
H  H207  1  0.96353453  0.34030180  0.27861614  1  0.002246  0  0.082344  0.112538  0  1.021691  0
H  H208  1  0.46845456  0.45552119  0.80092761  1  0.034928  0  0.086549  0.046488  0  0.996821  0
H  H209  1  0.03155019  0.54448255  0.30092878  1  0.03489  0  0.08654  0.046435  0  0.996922  0
H  H210  1  0.53154854  0.95551887  0.69907075  1  0.034944  0  0.086522  0.046416  0  0.996927  0
H  H211  1  0.96845291  0.04448077  0.19907044  1  0.034919  0  0.086532  0.046452  0  0.996881  0
H  H212  1  0.34653308  0.41583426  0.80390709  1  0.048433  0  0.092258  0.05742  0  1.021337  0
H  H213  1  0.15346951  0.58416749  0.30390648  1  0.048388  0  0.09224  0.057398  0  1.021358  0
H  H214  1  0.65346926  0.91583072  0.69609234  1  0.048366  0  0.09223  0.057351  0  1.021386  0
H  H215  1  0.84653217  0.08416761  0.19609271  1  0.048408  0  0.092252  0.0574  0  1.021334  0
H  H216  1  0.34142659  0.54064631  0.74320909  1  0.585244  0  0.304154  0.329024  0  0.950244  0
H  H217  1  0.15857207  0.45935289  0.24321067  1  0.585235  0  0.304139  0.329016  0  0.950273  0
H  H218  1  0.65857178  0.04064619  0.75678968  1  0.585244  0  0.304149  0.329073  0  0.950288  0
H  H219  1  0.84142851  0.95935403  0.25679072  1  0.58526  0  0.304146  0.32903  0  0.950263  0
C  C220  1  0.67537339  0.13280495  0.11659500  1  0.454473  0  -0.000577  0.129204  0  3.895502  0
C  C221  1  0.82462691  0.86719483  0.61659460  1  0.454385  0  -0.000624  0.12923  0  3.895249  0
C  C222  1  0.32462761  0.63280350  0.38340466  1  0.454541  0  -0.00058  0.129201  0  3.895433  0
C  C223  1  0.17537248  0.36719546  0.88340540  1  0.454367  0  -0.000604  0.12924  0  3.895384  0
C  C224  1  0.79485878  0.21921803  0.70677141  1  0.003169  0  0.021423  0.081353  0  3.842471  0
C  C225  1  0.70514054  0.78077962  0.20677125  1  0.003172  0  0.021416  0.081329  0  3.842453  0
C  C226  1  0.20514121  0.71921730  0.79322821  1  0.003237  0  0.021357  0.081268  0  3.842499  0
C  C227  1  0.29485915  0.28078115  0.29322774  1  0.003286  0  0.021374  0.081247  0  3.8425  0
C  C228  1  0.60106938  0.14426792  0.05822033  1  0.264849  0  -0.006083  0.033271  0  3.764008  0
C  C229  1  0.89892918  0.85573262  0.55822168  1  0.265113  0  -0.00611  0.033287  0  3.764011  0
C  C230  1  0.39892946  0.64426842  0.44177931  1  0.264822  0  -0.006084  0.033401  0  3.763965  0
C  C231  1  0.10107165  0.35573111  0.94177781  1  0.264798  0  -0.006085  0.033268  0  3.763956  0
C  C232  1  0.57791207  0.16434062  0.93723420  1  0.26238  0  -0.075332  -0.091491  0  3.838761  0
C  C233  1  0.92208841  0.83566064  0.43723402  1  0.262313  0  -0.075333  -0.091443  0  3.838995  0
C  C234  1  0.42208642  0.66434109  0.56276651  1  0.262206  0  -0.075343  -0.091415  0  3.838621  0
C  C235  1  0.07791133  0.33565840  0.06276543  1  0.261752  0  -0.075311  -0.091335  0  3.838753  0
C  C236  1  0.58612252  0.28979206  0.26071173  1  0.433162  0  0.1017  0.177792  0  4.027487  0
C  C237  1  0.91388358  0.71021080  0.76071069  1  0.432953  0  0.101598  0.177589  0  4.027668  0
C  C238  1  0.41387935  0.78979025  0.23928880  1  0.433002  0  0.101644  0.17765  0  4.027489  0
C  C239  1  0.08612074  0.21020829  0.73928998  1  0.433015  0  0.101719  0.177748  0  4.02733  0
C  C240  1  0.82063857  0.13684332  0.73223334  1  0.005289  0  -0.085799  -0.17866  0  3.953702  0
C  C241  1  0.67936087  0.86315694  0.23223355  1  0.005315  0  -0.085777  -0.17856  0  3.953648  0
C  C242  1  0.17936279  0.63683929  0.76776636  1  0.00535  0  -0.085702  -0.178473  0  3.953502  0
C  C243  1  0.32063962  0.36315853  0.26776588  1  0.005292  0  -0.085748  -0.178499  0  3.95352  0
C  C244  1  0.62029972  0.26302757  0.19395425  1  0.025593  0  -0.007062  0.016199  0  3.972371  0
C  C245  1  0.87970750  0.73697540  0.69395413  1  0.025578  0  -0.007095  0.016189  0  3.972644  0
C  C246  1  0.37970793  0.76302563  0.30604630  1  0.025522  0  -0.007021  0.016357  0  3.972466  0
C  C247  1  0.12029612  0.23697346  0.80604703  1  0.025582  0  -0.007103  0.016202  0  3.97241  0
C  C248  1  0.63540650  0.17023112  0.18322636  1  -0.058759  0  0.000544  0.041012  0  3.899268  0
C  C249  1  0.86459487  0.82977121  0.68322713  1  -0.058877  0  0.000595  0.041046  0  3.89916  0
C  C250  1  0.36459671  0.67023113  0.31677326  1  -0.058926  0  0.000545  0.040949  0  3.899067  0
C  C251  1  0.13540667  0.32976927  0.81677342  1  -0.058786  0  0.000568  0.040969  0  3.899309  0
C  C252  1  0.61251807  0.11313702  0.23635043  1  -0.017037  0  -0.09635  -0.180502  0  3.987764  0
C  C253  1  0.88747994  0.88686323  0.73635532  1  -0.017004  0  -0.096511  -0.180671  0  3.987971  0
C  C254  1  0.38748001  0.61313714  0.26364770  1  -0.016421  0  -0.096419  -0.180615  0  3.987677  0
C  C255  1  0.11251875  0.38686202  0.76364929  1  -0.017028  0  -0.096338  -0.180463  0  3.987715  0
C  C256  1  0.80425255  0.23506249  0.63018253  1  0.493315  0  0.004869  0.133428  0  3.8763  0
C  C257  1  0.69574783  0.76493528  0.13018288  1  0.493295  0  0.004898  0.133429  0  3.876374  0
C  C258  1  0.19574817  0.73506230  0.86981759  1  0.493318  0  0.004862  0.133402  0  3.876431  0
C  C259  1  0.30425112  0.26493868  0.36981767  1  0.492998  0  0.004889  0.133457  0  3.876397  0
C  C260  1  0.50252558  0.09975549  0.07240751  1  -0.013197  0  -0.165634  -0.228777  0  3.862903  0
C  C261  1  0.99747233  0.90024502  0.57240856  1  -0.013493  0  -0.1656  -0.228715  0  3.862719  0
C  C262  1  0.49747322  0.59975676  0.42759217  1  -0.01306  0  -0.165621  -0.228797  0  3.862917  0
C  C263  1  0.00252710  0.40024413  0.92759141  1  -0.013039  0  -0.165648  -0.22887  0  3.862781  0
C  C264  1  0.81998803  0.12040040  0.80333858  1  0.465233  0  0.047155  0.090481  0  3.97434  0
C  C265  1  0.68001177  0.87959842  0.30333774  1  0.46522  0  0.047169  0.09048  0  3.974402  0
C  C266  1  0.18001331  0.62039781  0.69665908  1  0.465198  0  0.047135  0.090497  0  3.974328  0
C  C267  1  0.31998801  0.37960079  0.19666012  1  0.465157  0  0.047148  0.090415  0  3.97441  0
C  C268  1  0.76908586  0.26430225  0.82659892  1  0.432273  0  0.106094  0.187521  0  3.990872  0
C  C269  1  0.73091406  0.73569586  0.32659887  1  0.432345  0  0.106098  0.187576  0  3.990734  0
C  C270  1  0.23091344  0.76430041  0.67340066  1  0.432238  0  0.106107  0.18758  0  3.99077  0
C  C271  1  0.26908921  0.23569956  0.17340017  1  0.43232  0  0.106136  0.187631  0  3.990731  0
C  C272  1  0.62454060  0.01924377  0.97714957  1  0.236158  0  -0.084858  -0.082092  0  3.852603  0
C  C273  1  0.87545790  0.98075610  0.47714913  1  0.236145  0  -0.084864  -0.08202  0  3.852604  0
C  C274  1  0.37545702  0.51924427  0.52284974  1  0.236057  0  -0.084867  -0.082006  0  3.852676  0
C  C275  1  0.12453907  0.48075528  0.02285069  1  0.236165  0  -0.084878  -0.082182  0  3.852641  0
C  C276  1  0.63747888  0.32915762  0.14329354  1  -0.100001  0  -0.116535  -0.27846  0  3.973222  0
C  C277  1  0.86252663  0.67084676  0.64329395  1  -0.100023  0  -0.116427  -0.278302  0  3.973263  0
C  C278  1  0.36252737  0.82915558  0.35670695  1  -0.10002  0  -0.116465  -0.278481  0  3.97331  0
C  C279  1  0.13747693  0.17084343  0.85670778  1  -0.1  0  -0.116399  -0.278311  0  3.973212  0
C  C280  1  0.76452493  0.28546860  0.75453941  1  0.010863  0  0.005202  0.031602  0  3.95232  0
C  C281  1  0.73547390  0.71452963  0.25453991  1  0.010885  0  0.005249  0.031619  0  3.952297  0
C  C282  1  0.23547584  0.78546731  0.74546067  1  0.010807  0  0.005248  0.031604  0  3.95226  0
C  C283  1  0.26452283  0.21453321  0.24546018  1  0.010792  0  0.005255  0.031622  0  3.952263  0
C  C284  1  0.72574649  0.18821923  0.58751613  1  0.284388  0  -0.004113  0.03194  0  3.838368  0
C  C285  1  0.77425367  0.81177861  0.08751611  1  0.284387  0  -0.004163  0.03186  0  3.838389  0
C  C286  1  0.27425492  0.68821968  0.91248456  1  0.284355  0  -0.004106  0.031993  0  3.838431  0
C  C287  1  0.22574460  0.31177990  0.41248388  1  0.284649  0  -0.004101  0.031976  0  3.838442  0
C  C288  1  0.71416351  0.41277046  0.85484621  1  -0.023511  0  -0.087064  -0.16101  0  3.974759  0
C  C289  1  0.78583438  0.58722827  0.35484644  1  -0.023524  0  -0.087009  -0.161  0  3.974708  0
C  C290  1  0.28583520  0.91277003  0.64515374  1  -0.023424  0  -0.087049  -0.16101  0  3.974654  0
C  C291  1  0.21416513  0.08723197  0.14515325  1  -0.0233  0  -0.087035  -0.160978  0  3.974674  0
C  C292  1  0.73075986  0.37044593  0.73460281  1  0.03428  0  -0.107356  -0.264005  0  3.964376  0
C  C293  1  0.76924032  0.62955167  0.23460450  1  0.034342  0  -0.107453  -0.264151  0  3.964462  0
C  C294  1  0.26924027  0.87044463  0.76539667  1  0.034297  0  -0.107396  -0.264068  0  3.964296  0
C  C295  1  0.23075850  0.12955386  0.26539515  1  0.034369  0  -0.107408  -0.264137  0  3.964388  0
C  C296  1  0.70551211  0.43291153  0.78370184  1  0.421786  0  0.0898  0.259402  0  4.081819  0
C  C297  1  0.79448686  0.56708666  0.28370263  1  0.421692  0  0.089843  0.259559  0  4.081606  0
C  C298  1  0.29448807  0.93291099  0.71629810  1  0.421794  0  0.089837  0.259481  0  4.081792  0
C  C299  1  0.20551191  0.06708891  0.21629709  1  0.421811  0  0.08986  0.259573  0  4.0818  0
C  C300  1  0.57976548  0.14640045  0.29995483  1  0.564019  0  0.036797  0.079629  0  4.037833  0
C  C301  1  0.92022996  0.85360235  0.79995675  1  0.563808  0  0.036876  0.079742  0  4.038132  0
C  C302  1  0.42022902  0.64640070  0.20004378  1  0.563989  0  0.036883  0.079821  0  4.037797  0
C  C303  1  0.07976652  0.35359857  0.70004480  1  0.563994  0  0.036826  0.079683  0  4.037773  0
C  C304  1  0.56987157  0.38138429  0.27363689  1  -0.020859  0  -0.084253  -0.13083  0  3.975284  0
C  C305  1  0.93013243  0.61861855  0.77363650  1  -0.020702  0  -0.084256  -0.130682  0  3.975078  0
C  C306  1  0.43012893  0.88138583  0.22636457  1  -0.020729  0  -0.08418  -0.130664  0  3.975079  0
C  C307  1  0.06987109  0.11861406  0.72636426  1  -0.020759  0  -0.084225  -0.13076  0  3.975232  0
C  C308  1  0.74474896  0.33047793  0.87557133  1  -0.051749  0  -0.09014  -0.158277  0  4.00232  0
C  C309  1  0.75525120  0.66952077  0.37557243  1  -0.051829  0  -0.090179  -0.158346  0  4.002239  0
C  C310  1  0.25524968  0.83047619  0.62442870  1  -0.05179  0  -0.090169  -0.158331  0  4.002238  0
C  C311  1  0.24474983  0.16952386  0.12442821  1  -0.051818  0  -0.090211  -0.158429  0  4.002241  0
C  C312  1  0.55943989  0.15149280  0.57560827  1  0.25605  0  -0.071536  -0.076862  0  3.874871  0
C  C313  1  0.94056021  0.84850439  0.07560813  1  0.256066  0  -0.071626  -0.077016  0  3.874747  0
C  C314  1  0.44056148  0.65149337  0.92439091  1  0.25608  0  -0.071566  -0.076873  0  3.874791  0
C  C315  1  0.05943737  0.34850487  0.42439131  1  0.256066  0  -0.071602  -0.076933  0  3.874802  0
C  C316  1  0.61700775  0.41716768  0.15724862  1  0.466363  0  0.078882  0.253587  0  4.068337  0
C  C317  1  0.88299638  0.58283601  0.65724711  1  0.466402  0  0.078699  0.253319  0  4.068607  0
C  C318  1  0.38299351  0.91716634  0.34275332  1  0.466418  0  0.078734  0.253454  0  4.068587  0
C  C319  1  0.11700782  0.08283269  0.84275316  1  0.466415  0  0.078757  0.253472  0  4.068467  0
C  C320  1  0.58370952  0.44383209  0.22317022  1  -0.035877  0  -0.098611  -0.181171  0  4.00051  0
C  C321  1  0.91629495  0.55617150  0.72316985  1  -0.036024  0  -0.098577  -0.181062  0  4.000399  0
C  C322  1  0.41629249  0.94383221  0.27683170  1  -0.035902  0  -0.098586  -0.181082  0  4.00047  0
C  C323  1  0.08370851  0.05616759  0.77683096  1  -0.035925  0  -0.098608  -0.181157  0  4.000538  0
C  C324  1  0.65233337  0.46049383  0.04157989  1  0.349482  0  -0.142425  -0.18426  0  3.905243  0
C  C325  1  0.84766656  0.53950806  0.54157884  1  0.349547  0  -0.142412  -0.18428  0  3.905144  0
C  C326  1  0.34766503  0.96049228  0.45842305  1  0.349607  0  -0.142396  -0.184212  0  3.90509  0
C  C327  1  0.15233182  0.03950921  0.95842456  1  0.349756  0  -0.142415  -0.184344  0  3.905107  0
C  C328  1  0.74919279  0.19125271  0.50931625  1  -0.047979  0  -0.170006  -0.250865  0  3.902505  0
C  C329  1  0.75080771  0.80874459  0.00931618  1  -0.047976  0  -0.169933  -0.25072  0  3.902645  0
C  C330  1  0.25081007  0.69125302  0.99068391  1  -0.048079  0  -0.170003  -0.250839  0  3.902561  0
C  C331  1  0.24919129  0.30874643  0.49068330  1  -0.047935  0  -0.169932  -0.250727  0  3.90257  0
C  C332  1  0.65280679  0.19526235  0.47041794  1  0.050104  0  -0.085883  0.024801  0  3.828029  0
C  C333  1  0.84719241  0.80473487  0.97041766  1  0.050245  0  -0.085788  0.024931  0  3.82804  0
C  C334  1  0.34719500  0.69526282  0.02958165  1  0.050132  0  -0.0858  0.02481  0  3.82821  0
C  C335  1  0.15280693  0.30473606  0.52958136  1  0.050099  0  -0.085808  0.024877  0  3.828141  0
C  C336  1  0.60942393  0.28722505  0.48338373  1  -0.057616  0  -0.169876  -0.215019  0  3.907139  0
C  C337  1  0.89057606  0.71277414  0.98338263  1  -0.05761  0  -0.169855  -0.214983  0  3.907154  0
C  C338  1  0.39057649  0.78722491  0.01661628  1  -0.057639  0  -0.169865  -0.214992  0  3.907172  0
C  C339  1  0.10942537  0.21277465  0.51661700  1  -0.057589  0  -0.169846  -0.214959  0  3.907103  0
C  C340  1  0.58212098  0.12471904  0.49995928  1  -0.039623  0  -0.086467  -0.16747  0  3.795054  0
C  C341  1  0.91787836  0.87527946  0.99996066  1  -0.039822  0  -0.086441  -0.167409  0  3.794958  0
C  C342  1  0.41788074  0.62471894  0.00003986  1  -0.039677  0  -0.08649  -0.167487  0  3.795075  0
C  C343  1  0.08211959  0.37528064  0.50003830  1  -0.039663  0  -0.086474  -0.16747  0  3.795022  0
C  C344  1  0.62375100  0.03132943  0.49177611  1  1.539036  0  0.203811  0.597355  0  4.125005  0
C  C345  1  0.87624976  0.96866776  0.99177626  1  1.53924  0  0.203796  0.597336  0  4.12493  0
C  C346  1  0.37625064  0.53133128  0.00822312  1  1.539246  0  0.203872  0.59746  0  4.124885  0
C  C347  1  0.12374901  0.46866962  0.50822106  1  1.539363  0  0.203861  0.597495  0  4.125036  0
C  C348  1  0.60719376  0.30262203  0.56242362  1  0.25171  0  -0.07594  -0.066199  0  3.918468  0
C  C349  1  0.89280483  0.69737453  0.06242299  1  0.25143  0  -0.076001  -0.066373  0  3.918357  0
C  C350  1  0.39280703  0.80262320  0.93757592  1  0.251442  0  -0.075967  -0.066257  0  3.918527  0
C  C351  1  0.10719406  0.19737568  0.43757711  1  0.251399  0  -0.07601  -0.066334  0  3.918446  0
C  C352  1  0.45809684  0.07239384  0.00313767  1  0.031205  0  -0.08349  0.029079  0  3.837805  0
C  C353  1  0.04190206  0.92760972  0.50313598  1  0.031453  0  -0.08353  0.029067  0  3.83795  0
C  C354  1  0.54189976  0.57239436  0.49686307  1  0.031237  0  -0.083521  0.029033  0  3.837848  0
C  C355  1  0.95809595  0.42760547  0.99686139  1  0.031512  0  -0.083474  0.029185  0  3.837667  0
C  C356  1  0.46847798  0.14858431  0.95000179  1  -0.027614  0  -0.087412  -0.161148  0  3.814461  0
C  C357  1  0.03151810  0.85141919  0.45000163  1  -0.027451  0  -0.087456  -0.161293  0  3.814832  0
C  C358  1  0.53151832  0.64858356  0.54999996  1  -0.027273  0  -0.087379  -0.161191  0  3.814642  0
C  C359  1  0.96847876  0.35141633  0.04999883  1  -0.027246  0  -0.08736  -0.161108  0  3.814507  0
C  C360  1  0.51637212  0.99381242  0.97567381  1  -0.065558  0  -0.165609  -0.193873  0  3.872177  0
C  C361  1  0.98362566  0.00618877  0.47567409  1  -0.065628  0  -0.165555  -0.193695  0  3.8722  0
C  C362  1  0.48362522  0.49381056  0.52432554  1  -0.065251  0  -0.1656  -0.193828  0  3.872234  0
C  C363  1  0.01637088  0.50618766  0.02432414  1  -0.0657  0  -0.165599  -0.193858  0  3.87211  0
C  C364  1  0.41235635  0.22894951  0.97545222  1  1.533249  0  0.193559  0.580127  0  4.162778  0
C  C365  1  0.08764276  0.77105064  0.47545176  1  1.533183  0  0.193631  0.580181  0  4.162805  0
C  C366  1  0.58764219  0.72895017  0.52454997  1  1.533142  0  0.193553  0.580108  0  4.163105  0
C  C367  1  0.91235548  0.27104910  0.02454930  1  1.533179  0  0.193549  0.580096  0  4.162927  0
C  C368  1  0.65181117  0.53694765  0.69945508  1  0.39903  0  -0.140882  -0.185654  0  3.891961  0
C  C369  1  0.84819028  0.46305200  0.19945663  1  0.399299  0  -0.140957  -0.185665  0  3.892068  0
C  C370  1  0.34819010  0.03694656  0.80054266  1  0.399053  0  -0.140959  -0.18568  0  3.892191  0
C  C371  1  0.15181030  0.96305321  0.30054219  1  0.399057  0  -0.140913  -0.185684  0  3.892131  0
C  C372  1  0.47349706  0.27778651  0.78605947  1  0.000524  0  -0.16752  -0.121483  0  3.928462  0
C  C373  1  0.02650471  0.72221526  0.28605839  1  0.000495  0  -0.16759  -0.12144  0  3.928536  0
C  C374  1  0.52650225  0.77778350  0.71394010  1  0.000485  0  -0.167544  -0.121542  0  3.928572  0
C  C375  1  0.97349782  0.22221479  0.21394168  1  9e-06  0  -0.167539  -0.121546  0  3.928669  0
C  C376  1  0.43865511  0.34555288  0.73251275  1  0.031376  0  -0.096507  0.041894  0  3.869778  0
C  C377  1  0.06134495  0.65444832  0.23251234  1  0.031402  0  -0.096489  0.041945  0  3.869736  0
C  C378  1  0.56134499  0.84555445  0.76748727  1  0.03132  0  -0.096509  0.041936  0  3.869909  0
C  C379  1  0.93865680  0.15444840  0.26748780  1  0.031285  0  -0.096521  0.041776  0  3.870059  0
C  C380  1  0.35646219  0.30911746  0.68781377  1  -0.072066  0  -0.250596  -0.383792  0  3.917811  0
C  C381  1  0.14353837  0.69088381  0.18781354  1  -0.07224  0  -0.250626  -0.38392  0  3.917841  0
C  C382  1  0.64353861  0.80911703  0.81218577  1  -0.072247  0  -0.250648  -0.383934  0  3.917852  0
C  C383  1  0.85646341  0.19088309  0.31218554  1  -0.072456  0  -0.25061  -0.383917  0  3.917794  0
C  C384  1  0.51649872  0.19452907  0.75378561  1  -0.095013  0  -0.262216  -0.370524  0  3.964482  0
C  C385  1  0.98350373  0.80547447  0.25378408  1  -0.09581  0  -0.262246  -0.370548  0  3.964511  0
C  C386  1  0.48350269  0.69452598  0.74621301  1  -0.095747  0  -0.262256  -0.370469  0  3.964632  0
C  C387  1  0.01649816  0.30547387  0.24621540  1  -0.095277  0  -0.26217  -0.370336  0  3.964389  0
C  C388  1  0.40783285  0.43021469  0.76923984  1  0.394577  0  -0.081318  0.04312  0  3.9042  0
C  C389  1  0.09216956  0.56978844  0.26924011  1  0.394648  0  -0.081269  0.043176  0  3.904267  0
C  C390  1  0.59216878  0.93021038  0.73075855  1  0.394568  0  -0.081283  0.04324  0  3.904304  0
C  C391  1  0.90783283  0.06978921  0.23075909  1  0.3946  0  -0.08131  0.043171  0  3.904269  0
N  N392  1  0.79647067  0.18216348  0.84940241  1  -1.242836  0  -0.33072  -0.285119  0  3.491597  0
N  N393  1  0.70352791  0.81783460  0.34940221  1  -1.242742  0  -0.330749  -0.285119  0  3.491565  0
N  N394  1  0.20353073  0.68216232  0.65059725  1  -1.242783  0  -0.330706  -0.285119  0  3.491566  0
N  N395  1  0.29647181  0.31783570  0.15059778  1  -1.242858  0  -0.330737  -0.285117  0  3.491807  0
N  N396  1  0.56847671  0.23178204  0.31292221  1  -1.184371  0  -0.318194  -0.288092  0  3.337688  0
N  N397  1  0.93152531  0.76822074  0.81292476  1  -1.183986  0  -0.318046  -0.287958  0  3.3377  0
N  N398  1  0.43152293  0.73178033  0.18707683  1  -1.18403  0  -0.318137  -0.288114  0  3.337745  0
N  N399  1  0.06847762  0.26821763  0.68707842  1  -1.184085  0  -0.318247  -0.288156  0  3.337635  0
N  N400  1  0.62685925  0.22021748  0.60054261  1  -0.984544  0  -0.342457  -0.174504  0  3.382512  0
N  N401  1  0.87313953  0.77977901  0.10054237  1  -0.984601  0  -0.342438  -0.174329  0  3.382199  0
N  N402  1  0.37314146  0.72021936  0.89945804  1  -0.984606  0  -0.342456  -0.174469  0  3.382477  0
N  N403  1  0.12685871  0.27977958  0.39945766  1  -0.984558  0  -0.34249  -0.174443  0  3.382351  0
N  N404  1  0.63824322  0.11637794  0.98876793  1  -0.970887  0  -0.33746  -0.145934  0  3.378155  0
N  N405  1  0.86175607  0.88362058  0.48876859  1  -0.970863  0  -0.337498  -0.146198  0  3.378391  0
N  N406  1  0.36175595  0.61637911  0.51123179  1  -0.970908  0  -0.337485  -0.146162  0  3.378311  0
N  N407  1  0.13824227  0.38361979  0.01123287  1  -0.970835  0  -0.337527  -0.146106  0  3.378317  0
O  O408  1  0.70137850  0.04212266  0.12695142  1  -1.161245  0  -0.406541  -0.521669  0  2.316946  0
O  O409  1  0.79862114  0.95787975  0.62695138  1  -1.161138  0  -0.406505  -0.521618  0  2.316801  0
O  O410  1  0.29862170  0.54212320  0.37304781  1  -1.161339  0  -0.406561  -0.521639  0  2.316999  0
O  O411  1  0.20137834  0.45787777  0.87304955  1  -1.161169  0  -0.406512  -0.521647  0  2.31693  0
O  O412  1  0.62942184  0.48501093  0.11097884  1  -1.082432  0  -0.196221  -0.17987  0  2.560986  0
O  O413  1  0.87058207  0.51499350  0.61097890  1  -1.08241  0  -0.196169  -0.179786  0  2.560908  0
O  O414  1  0.37057877  0.98500885  0.38902253  1  -1.082429  0  -0.196204  -0.179905  0  2.560941  0
O  O415  1  0.12941918  0.01499077  0.88902401  1  -1.082574  0  -0.196246  -0.179933  0  2.560908  0
O  O416  1  0.67201299  0.51566002  0.76986498  1  -1.066608  0  -0.184104  -0.158842  0  2.563819  0
O  O417  1  0.82798809  0.48433951  0.26986594  1  -1.06651  0  -0.184097  -0.158841  0  2.563875  0
O  O418  1  0.32798681  0.01565903  0.73013432  1  -1.066273  0  -0.184111  -0.158847  0  2.563998  0
O  O419  1  0.17201106  0.98434283  0.23013285  1  -1.066334  0  -0.184172  -0.15891  0  2.563954  0
O  O420  1  0.89567330  0.19743218  0.61033674  1  -1.06601  0  -0.392495  -0.483826  0  2.289261  0
O  O421  1  0.60432626  0.80256628  0.11033681  1  -1.065968  0  -0.392483  -0.483874  0  2.289239  0
O  O422  1  0.10432812  0.69743122  0.88966239  1  -1.066011  0  -0.392504  -0.483885  0  2.289342  0
O  O423  1  0.39567056  0.30257304  0.38966113  1  -1.066023  0  -0.39254  -0.483864  0  2.289431  0
O  O424  1  0.64601403  0.98519904  0.54468460  1  -1.193807  0  -0.329181  -0.574785  0  2.238499  0
O  O425  1  0.85398519  0.01479953  0.04468505  1  -1.193767  0  -0.329196  -0.574773  0  2.238415  0
O  O426  1  0.35398475  0.48519969  0.95531528  1  -1.193786  0  -0.329201  -0.57477  0  2.238393  0
O  O427  1  0.14601281  0.51479982  0.45531162  1  -1.193883  0  -0.32921  -0.574826  0  2.238484  0
O  O428  1  0.63514836  0.00175486  0.43082034  1  -1.156656  0  -0.327066  -0.547564  0  2.188996  0
O  O429  1  0.86485498  0.99824375  0.93082044  1  -1.156861  0  -0.327048  -0.547548  0  2.188943  0
O  O430  1  0.36485687  0.50175528  0.06917995  1  -1.156856  0  -0.327099  -0.547644  0  2.189003  0
O  O431  1  0.13514163  0.49824684  0.56917634  1  -1.156865  0  -0.327072  -0.54768  0  2.18913  0
O  O432  1  0.31959136  0.22519101  0.97116514  1  -1.188683  0  -0.340313  -0.578954  0  2.201387  0
O  O433  1  0.18040700  0.77480715  0.47116131  1  -1.188637  0  -0.340343  -0.578997  0  2.201495  0
O  O434  1  0.68040574  0.72519372  0.52884066  1  -1.188622  0  -0.340313  -0.578954  0  2.201606  0
O  O435  1  0.81959051  0.27480620  0.02883820  1  -1.188609  0  -0.340349  -0.578972  0  2.201494  0
O  O436  1  0.45608685  0.29411070  0.00289822  1  -1.15491  0  -0.327385  -0.538251  0  2.174658  0
O  O437  1  0.04390915  0.70589086  0.50289778  1  -1.154819  0  -0.327429  -0.538269  0  2.174543  0
O  O438  1  0.54390996  0.79411057  0.49710282  1  -1.154815  0  -0.327403  -0.538269  0  2.174652  0
O  O439  1  0.95608793  0.20588860  0.99710340  1  -1.154915  0  -0.327354  -0.538223  0  2.174696  0
O  O440  1  0.37942697  0.49589604  0.71926517  1  -1.119016  0  -0.418077  -0.490881  0  2.251765  0
O  O441  1  0.12057374  0.50410386  0.21926506  1  -1.118977  0  -0.418071  -0.490875  0  2.251722  0
O  O442  1  0.62057544  0.99589498  0.78073470  1  -1.118946  0  -0.418074  -0.490936  0  2.251663  0
O  O443  1  0.87942787  0.00410453  0.28073472  1  -1.118964  0  -0.41807  -0.49088  0  2.251695  0
