# generated using pymatgen
data_ZnH10C12N4O
_symmetry_space_group_name_H-M   'P 1'
_cell_length_a   10.68150858
_cell_length_b   10.67903985
_cell_length_c   47.99126137
_cell_angle_alpha   90.00309844
_cell_angle_beta   90.00442864
_cell_angle_gamma   89.99818869
_symmetry_Int_Tables_number   1
_chemical_formula_structural   ZnH10C12N4O
_chemical_formula_sum   'Zn16 H160 C192 N64 O16'
_cell_volume   5474.27944836
_cell_formula_units_Z   16
loop_
 _symmetry_equiv_pos_site_id
 _symmetry_equiv_pos_as_xyz
  1  'x, y, z'
loop_
 _atom_site_type_symbol
 _atom_site_label
 _atom_site_symmetry_multiplicity
 _atom_site_fract_x
 _atom_site_fract_y
 _atom_site_fract_z
 _atom_site_occupancy
 _atom_site_pbe_bader_charge
 _atom_site_pbe_bader_spin_density
 _atom_site_pbe_cm5_charge
 _atom_site_pbe_ddec_charge
 _atom_site_pbe_ddec_spin_density
 _atom_site_pbe_ddec_sum_bond_order
 _atom_site_pbe_magmom
Zn  Zn0  1  0.31692414  0.24619096  0.00547591  1  1.117029  0  0.504267  0.686697  0  2.761685  0
Zn  Zn1  1  0.68297083  0.75377187  0.50545837  1  1.11633  0  0.504533  0.687148  0  2.761524  0
Zn  Zn2  1  0.75391747  0.31689620  0.75547150  1  1.116232  0  0.504427  0.686913  0  2.761344  0
Zn  Zn3  1  0.24621124  0.68318636  0.25548841  1  1.115628  0  0.504263  0.686938  0  2.761521  0
Zn  Zn4  1  0.68303575  0.24611533  0.99454496  1  1.115718  0  0.50454  0.687038  0  2.761526  0
Zn  Zn5  1  0.31687751  0.75374085  0.49453178  1  1.116604  0  0.504313  0.687  0  2.761586  0
Zn  Zn6  1  0.24622742  0.31692748  0.24452966  1  1.116849  0  0.504364  0.686868  0  2.761409  0
Zn  Zn7  1  0.75383313  0.68319476  0.74450396  1  1.116471  0  0.504249  0.686855  0  2.761577  0
Zn  Zn8  1  0.49994899  0.06268500  0.00001270  1  1.112732  0  0.503677  0.675823  0  2.777882  0
Zn  Zn9  1  0.49990582  0.93724289  0.49999001  1  1.113002  0  0.503655  0.67554  0  2.778255  0
Zn  Zn10  1  0.93728478  0.50007676  0.74998441  1  1.112521  0  0.503496  0.675532  0  2.778311  0
Zn  Zn11  1  0.06277099  0.50005794  0.25001079  1  1.112839  0  0.503608  0.675865  0  2.777839  0
Zn  Zn12  1  0.50000200  0.44020021  0.00000556  1  1.130401  0  0.518352  0.699724  0  2.74144  0
Zn  Zn13  1  0.49995392  0.55969303  0.49999507  1  1.129703  0  0.518222  0.699908  0  2.741271  0
Zn  Zn14  1  0.55989146  0.50001250  0.74999304  1  1.130497  0  0.518386  0.700211  0  2.740363  0
Zn  Zn15  1  0.44022797  0.50005479  0.25000612  1  1.130265  0  0.518362  0.699822  0  2.741025  0
H  H16  1  0.80647946  0.34094462  0.81630571  1  0.149747  0  0.133325  0.10623  0  1.003065  0
H  H17  1  0.19358286  0.65911787  0.31631322  1  0.149947  0  0.133301  0.106027  0  1.003145  0
H  H18  1  0.65884283  0.80641208  0.56627686  1  0.149159  0  0.133205  0.106068  0  1.003189  0
H  H19  1  0.34101852  0.19359997  0.06629416  1  0.149041  0  0.133428  0.106356  0  1.003066  0
H  H20  1  0.19360850  0.34102759  0.18370201  1  0.149645  0  0.133426  0.106263  0  1.003333  0
H  H21  1  0.80645759  0.65912502  0.68367863  1  0.150017  0  0.133173  0.105912  0  1.003376  0
H  H22  1  0.34099636  0.80636853  0.43371419  1  0.149931  0  0.133307  0.106143  0  1.003074  0
H  H23  1  0.65895707  0.19349648  0.93372582  1  0.148957  0  0.133245  0.106008  0  1.003121  0
H  H24  1  0.58349062  0.94899363  0.05785265  1  0.156829  0  0.129748  0.103952  0  1.012921  0
H  H25  1  0.41639327  0.05080209  0.55785612  1  0.155382  0  0.129994  0.104149  0  1.012673  0
H  H26  1  0.05080197  0.58361414  0.80787153  1  0.15536  0  0.130002  0.104123  0  1.012589  0
H  H27  1  0.94922859  0.41645864  0.30788391  1  0.155875  0  0.12982  0.103776  0  1.012619  0
H  H28  1  0.41645172  0.94911039  0.94214545  1  0.155446  0  0.129827  0.103819  0  1.01279  0
H  H29  1  0.58346700  0.05085858  0.44214284  1  0.156247  0  0.12977  0.103911  0  1.01256  0
H  H30  1  0.94926802  0.58360769  0.19212037  1  0.154791  0  0.130028  0.104127  0  1.012672  0
H  H31  1  0.05086166  0.41649719  0.69212750  1  0.155904  0  0.129738  0.103771  0  1.012509  0
H  H32  1  0.24894818  0.86676590  0.01638859  1  0.110946  0  0.120565  0.112253  0  0.99929  0
H  H33  1  0.75083612  0.13303551  0.51637029  1  0.110827  0  0.120597  0.112157  0  0.999298  0
H  H34  1  0.13311099  0.24914272  0.76636006  1  0.110359  0  0.120605  0.112293  0  0.999174  0
H  H35  1  0.86692389  0.75095820  0.26638860  1  0.111127  0  0.120513  0.111901  0  0.999636  0
H  H36  1  0.75094809  0.86687202  0.98362387  1  0.110549  0  0.120503  0.112089  0  0.999408  0
H  H37  1  0.24895507  0.13319615  0.48359994  1  0.110773  0  0.120461  0.112049  0  0.99935  0
H  H38  1  0.86696114  0.24917066  0.23363459  1  0.11076  0  0.120597  0.112255  0  0.999292  0
H  H39  1  0.13316702  0.75102874  0.73361611  1  0.110793  0  0.12069  0.112322  0  0.999312  0
H  H40  1  0.80986113  0.34582298  0.86373962  1  0.076602  0  0.107985  0.112745  0  0.999937  0
H  H41  1  0.19013325  0.65418272  0.36374575  1  0.076702  0  0.107928  0.112661  0  1.0001  0
H  H42  1  0.65388675  0.80992622  0.61370443  1  0.076843  0  0.107894  0.112744  0  0.999795  0
H  H43  1  0.34605552  0.19006463  0.11371156  1  0.077385  0  0.107895  0.112685  0  1.000052  0
H  H44  1  0.19016862  0.34585516  0.13627150  1  0.077218  0  0.10784  0.112547  0  1.000335  0
H  H45  1  0.80985305  0.65419599  0.63625770  1  0.07652  0  0.107985  0.112768  0  0.999969  0
H  H46  1  0.34607684  0.80994305  0.38629250  1  0.07756  0  0.107967  0.112656  0  1.000021  0
H  H47  1  0.65394078  0.19003962  0.88629775  1  0.077653  0  0.107963  0.112838  0  0.999876  0
H  H48  1  0.41941458  0.55166098  0.19247559  1  0.210405  0  0.129124  0.114529  0  1.02203  0
H  H49  1  0.58060848  0.44837655  0.69246763  1  0.210136  0  0.129094  0.114471  0  1.022068  0
H  H50  1  0.44832925  0.41937316  0.94248279  1  0.209734  0  0.129118  0.114429  0  1.021844  0
H  H51  1  0.55166729  0.58058652  0.44246916  1  0.21028  0  0.129164  0.114516  0  1.021901  0
H  H52  1  0.58060586  0.55161034  0.80752112  1  0.209719  0  0.129147  0.114609  0  1.021956  0
H  H53  1  0.41945174  0.44842490  0.30753482  1  0.210101  0  0.129066  0.114431  0  1.022192  0
H  H54  1  0.55165606  0.41938188  0.05752637  1  0.210006  0  0.129108  0.114421  0  1.021947  0
H  H55  1  0.44830262  0.58059356  0.55752520  1  0.210355  0  0.129148  0.114449  0  1.02196  0
H  H56  1  0.11272614  0.50811589  0.99299886  1  0.105125  0  0.119864  0.110023  0  0.998995  0
H  H57  1  0.88729240  0.49194221  0.49300149  1  0.105276  0  0.119965  0.110101  0  0.998973  0
H  H58  1  0.49207363  0.11280476  0.74300780  1  0.105657  0  0.119855  0.110064  0  0.998879  0
H  H59  1  0.50812686  0.88730029  0.24300673  1  0.10511  0  0.119971  0.110164  0  0.998982  0
H  H60  1  0.88738274  0.50787699  0.00699624  1  0.106509  0  0.120048  0.110135  0  0.998981  0
H  H61  1  0.11262882  0.49182867  0.50700194  1  0.105354  0  0.119837  0.110002  0  0.998893  0
H  H62  1  0.50806741  0.11267604  0.25699801  1  0.105566  0  0.119932  0.110161  0  0.9988  0
H  H63  1  0.49190919  0.88728794  0.75698891  1  0.104888  0  0.119947  0.110075  0  0.998892  0
H  H64  1  0.91195349  0.01369436  0.77392518  1  0.091773  0  0.12105  0.116564  0  0.99889  0
H  H65  1  0.08815124  0.98639140  0.27394228  1  0.0921  0  0.121144  0.116759  0  0.998718  0
H  H66  1  0.98597066  0.91188917  0.52389324  1  0.091744  0  0.121065  0.116531  0  0.999261  0
H  H67  1  0.01384136  0.08806094  0.02392089  1  0.089226  0  0.121036  0.116526  0  0.99926  0
H  H68  1  0.08824405  0.01382950  0.22610248  1  0.090044  0  0.121039  0.116437  0  0.999211  0
H  H69  1  0.91190788  0.98640847  0.72605131  1  0.092312  0  0.121056  0.116586  0  0.998507  0
H  H70  1  0.01380902  0.91191509  0.47607333  1  0.088907  0  0.120989  0.116484  0  0.999323  0
H  H71  1  0.98616753  0.08796691  0.97608835  1  0.088401  0  0.121051  0.116286  0  0.999203  0
H  H72  1  0.02837414  0.01167084  0.82542457  1  0.098949  0  0.113938  0.110737  0  1.020694  0
H  H73  1  0.97163964  0.98837028  0.32542351  1  0.098481  0  0.114037  0.110868  0  1.02085  0
H  H74  1  0.98795431  0.02851587  0.57536899  1  0.101613  0  0.114003  0.110593  0  1.020966  0
H  H75  1  0.01195867  0.97144110  0.07539263  1  0.099462  0  0.113873  0.110521  0  1.0212  0
H  H76  1  0.97172236  0.01173280  0.17461598  1  0.101163  0  0.114037  0.110773  0  1.020469  0
H  H77  1  0.02840070  0.98834473  0.67456593  1  0.097931  0  0.11411  0.110978  0  1.020965  0
H  H78  1  0.01193194  0.02854342  0.42460364  1  0.099528  0  0.113869  0.110517  0  1.021265  0
H  H79  1  0.98807752  0.97142630  0.92460430  1  0.099142  0  0.113913  0.110731  0  1.021334  0
H  H80  1  0.98826172  0.51229239  0.94194199  1  0.092795  0  0.116269  0.111052  0  1.018929  0
H  H81  1  0.01181141  0.48776268  0.44195727  1  0.093425  0  0.11633  0.111188  0  1.018679  0
H  H82  1  0.48760457  0.98843026  0.69193455  1  0.092447  0  0.116148  0.110912  0  1.018562  0
H  H83  1  0.51249135  0.01160060  0.19193138  1  0.091261  0  0.116196  0.11089  0  1.018768  0
H  H84  1  0.01186575  0.51211603  0.05805087  1  0.093247  0  0.116155  0.111014  0  1.018708  0
H  H85  1  0.98821574  0.48765445  0.55806027  1  0.092503  0  0.116223  0.111018  0  1.018856  0
H  H86  1  0.51240581  0.98829506  0.30806385  1  0.092778  0  0.116204  0.111093  0  1.018526  0
H  H87  1  0.48753306  0.01160358  0.80806478  1  0.091584  0  0.116285  0.11095  0  1.018674  0
H  H88  1  0.58632556  0.94721309  0.10467807  1  0.070078  0  0.107206  0.113296  0  1.001049  0
H  H89  1  0.41363063  0.05266898  0.60468297  1  0.069292  0  0.107238  0.113388  0  0.999947  0
H  H90  1  0.05245443  0.58612240  0.85473155  1  0.066995  0  0.107243  0.11319  0  1.000454  0
H  H91  1  0.94754452  0.41389533  0.35472886  1  0.067173  0  0.107234  0.113135  0  1.000442  0
H  H92  1  0.41364867  0.94728105  0.89531334  1  0.06986  0  0.10712  0.11327  0  1.000844  0
H  H93  1  0.58634567  0.05273174  0.39531893  1  0.069451  0  0.107207  0.113351  0  1.000697  0
H  H94  1  0.94756305  0.58613359  0.14527247  1  0.066885  0  0.107155  0.113122  0  1.000443  0
H  H95  1  0.05255143  0.41385590  0.64528314  1  0.067919  0  0.107198  0.113132  0  1.000417  0
H  H96  1  0.21055612  0.18044529  0.95055490  1  0.205626  0  0.12505  0.11278  0  1.031605  0
H  H97  1  0.78930260  0.81949279  0.45053811  1  0.207412  0  0.1251  0.112615  0  1.031767  0
H  H98  1  0.81950958  0.21059668  0.70051495  1  0.20632  0  0.12519  0.112681  0  1.031669  0
H  H99  1  0.18055729  0.78952600  0.20054599  1  0.204785  0  0.124999  0.112338  0  1.031583  0
H  H100  1  0.78932159  0.18041379  0.04948095  1  0.206215  0  0.12506  0.112669  0  1.03182  0
H  H101  1  0.21049966  0.81949336  0.54944373  1  0.20474  0  0.124905  0.112326  0  1.031461  0
H  H102  1  0.18061433  0.21064141  0.29947004  1  0.206463  0  0.125053  0.112458  0  1.031666  0
H  H103  1  0.81947061  0.78950532  0.79945005  1  0.204652  0  0.125065  0.112453  0  1.031678  0
H  H104  1  0.41244715  0.55664970  0.14527717  1  0.089649  0  0.111064  0.117654  0  0.992553  0
H  H105  1  0.58743701  0.44338006  0.64524385  1  0.090748  0  0.111053  0.117738  0  0.992922  0
H  H106  1  0.44323908  0.41250684  0.89525889  1  0.09139  0  0.111037  0.117655  0  0.993123  0
H  H107  1  0.55673652  0.58747035  0.39525274  1  0.091105  0  0.110959  0.117604  0  0.993227  0
H  H108  1  0.58750104  0.55662065  0.85474064  1  0.09  0  0.111126  0.117666  0  0.9927  0
H  H109  1  0.41248668  0.44335400  0.35473498  1  0.089994  0  0.111092  0.117768  0  0.992804  0
H  H110  1  0.55674832  0.41253535  0.10474914  1  0.091353  0  0.111048  0.11768  0  0.993241  0
H  H111  1  0.44321445  0.58755649  0.60473026  1  0.090508  0  0.111047  0.117633  0  0.992868  0
H  H112  1  0.35243659  0.62017910  0.09758022  1  0.086768  0  0.110042  0.11724  0  0.992882  0
H  H113  1  0.64738810  0.37978940  0.59754989  1  0.078337  0  0.110031  0.117223  0  0.992731  0
H  H114  1  0.37966729  0.35256640  0.84756153  1  0.06113  0  0.109942  0.117218  0  0.99327  0
H  H115  1  0.62030593  0.64743474  0.34755836  1  0.060531  0  0.109985  0.1173  0  0.992928  0
H  H116  1  0.64749369  0.62020942  0.90243362  1  0.077531  0  0.110041  0.11721  0  0.992988  0
H  H117  1  0.35247674  0.37979466  0.40242500  1  0.077531  0  0.110099  0.11737  0  0.992971  0
H  H118  1  0.62033510  0.35260921  0.15244572  1  0.059731  0  0.109963  0.117321  0  0.992985  0
H  H119  1  0.37967591  0.64753921  0.65242729  1  0.062407  0  0.110072  0.117422  0  0.992945  0
H  H120  1  0.20861319  0.18319114  0.90265764  1  0.047942  0  0.10936  0.116816  0  0.995385  0
H  H121  1  0.79137136  0.81681767  0.40264606  1  0.048174  0  0.109435  0.116896  0  0.995478  0
H  H122  1  0.81669512  0.20866328  0.65262703  1  0.049821  0  0.109386  0.116807  0  0.995593  0
H  H123  1  0.18331970  0.79136626  0.15265189  1  0.049305  0  0.109418  0.116782  0  0.995436  0
H  H124  1  0.79142265  0.18311506  0.09737513  1  0.048877  0  0.109358  0.116755  0  0.995593  0
H  H125  1  0.20856954  0.81678316  0.59733095  1  0.048566  0  0.109353  0.116907  0  0.995185  0
H  H126  1  0.18331744  0.20867184  0.34736065  1  0.050069  0  0.109365  0.116711  0  0.995546  0
H  H127  1  0.81668661  0.79133393  0.84734584  1  0.049125  0  0.109397  0.116777  0  0.99527  0
H  H128  1  0.24942088  0.73337000  0.06641288  1  0.103336  0  0.116912  0.111064  0  1.019638  0
H  H129  1  0.75042739  0.26655780  0.56638359  1  0.10615  0  0.116726  0.110855  0  1.019855  0
H  H130  1  0.26638773  0.24941966  0.81640123  1  0.106156  0  0.116649  0.110761  0  1.019986  0
H  H131  1  0.73354916  0.75058574  0.31641419  1  0.105897  0  0.116745  0.11089  0  1.019865  0
H  H132  1  0.75052828  0.73343869  0.93360056  1  0.105191  0  0.116909  0.11116  0  1.019648  0
H  H133  1  0.24947567  0.26665665  0.43358587  1  0.103134  0  0.116979  0.111055  0  1.019752  0
H  H134  1  0.73357298  0.24949303  0.18360510  1  0.106749  0  0.116824  0.11092  0  1.019881  0
H  H135  1  0.26646780  0.75064552  0.68358405  1  0.104702  0  0.116939  0.111138  0  1.019925  0
H  H136  1  0.87416035  0.40485322  0.91142927  1  0.082472  0  0.110555  0.118048  0  0.99491  0
H  H137  1  0.12581955  0.59514633  0.41142741  1  0.082674  0  0.110624  0.11821  0  0.994875  0
H  H138  1  0.59500198  0.87420419  0.66139924  1  0.078453  0  0.110612  0.117988  0  0.994871  0
H  H139  1  0.40504845  0.12581701  0.16140266  1  0.078123  0  0.110764  0.118208  0  0.995142  0
H  H140  1  0.12580762  0.40484490  0.08858824  1  0.078651  0  0.110671  0.118194  0  0.994879  0
H  H141  1  0.87410964  0.59512252  0.58856923  1  0.081703  0  0.110604  0.118045  0  0.994821  0
H  H142  1  0.40504103  0.87420940  0.33860498  1  0.07851  0  0.110662  0.11805  0  0.9952  0
H  H143  1  0.59498264  0.12581314  0.83860165  1  0.078112  0  0.110642  0.11808  0  0.994854  0
H  H144  1  0.75112021  0.77310813  0.18318649  1  0.089509  0  0.114348  0.111664  0  1.02312  0
H  H145  1  0.24894478  0.22684679  0.68318605  1  0.088962  0  0.114285  0.111531  0  1.023334  0
H  H146  1  0.22674893  0.75107117  0.93321413  1  0.089292  0  0.114318  0.1115  0  1.023377  0
H  H147  1  0.77329141  0.24894542  0.43319131  1  0.088032  0  0.114322  0.111395  0  1.023403  0
H  H148  1  0.24890540  0.77310751  0.81680683  1  0.089773  0  0.114317  0.111579  0  1.023191  0
H  H149  1  0.75107095  0.22682587  0.31681499  1  0.088687  0  0.114299  0.111561  0  1.0233  0
H  H150  1  0.77332138  0.75100848  0.06679245  1  0.089053  0  0.114432  0.111524  0  1.023478  0
H  H151  1  0.22668337  0.24895031  0.56679500  1  0.088586  0  0.114381  0.111472  0  1.023242  0
H  H152  1  0.14088486  0.11869611  0.85558324  1  0.055093  0  0.102065  0.104205  0  1.012226  0
H  H153  1  0.85914058  0.88135645  0.35558395  1  0.05532  0  0.102131  0.104221  0  1.012292  0
H  H154  1  0.88119629  0.14085688  0.60556361  1  0.055322  0  0.102018  0.103948  0  1.012397  0
H  H155  1  0.11882385  0.85906378  0.10557963  1  0.055575  0  0.102069  0.103908  0  1.01244  0
H  H156  1  0.85922042  0.11866122  0.14444431  1  0.055866  0  0.102099  0.104023  0  1.012957  0
H  H157  1  0.14087505  0.88131778  0.64440244  1  0.055735  0  0.102313  0.104311  0  1.012352  0
H  H158  1  0.11878564  0.14091549  0.39442256  1  0.055183  0  0.102043  0.103884  0  1.012533  0
H  H159  1  0.88119156  0.85903341  0.89441877  1  0.055375  0  0.102169  0.104114  0  1.01249  0
H  H160  1  0.74152599  0.66394142  0.23559253  1  0.119021  0  0.117875  0.112301  0  1.026686  0
H  H161  1  0.25854945  0.33607956  0.73558909  1  0.11957  0  0.117956  0.112456  0  1.02638  0
H  H162  1  0.33610168  0.74156042  0.98559940  1  0.118382  0  0.117929  0.112587  0  1.027033  0
H  H163  1  0.66394629  0.25839582  0.48557679  1  0.118375  0  0.117812  0.112376  0  1.026885  0
H  H164  1  0.25850962  0.66392125  0.76440292  1  0.119068  0  0.117807  0.112293  0  1.026543  0
H  H165  1  0.74151151  0.33606873  0.26441586  1  0.119539  0  0.117869  0.112361  0  1.026449  0
H  H166  1  0.66397174  0.74150067  0.01440518  1  0.119059  0  0.117914  0.11242  0  1.026653  0
H  H167  1  0.33599354  0.25842577  0.51440715  1  0.118492  0  0.117966  0.112484  0  1.026888  0
H  H168  1  0.65055083  0.88057091  0.15173450  1  0.057521  0  0.102733  0.104316  0  1.011837  0
H  H169  1  0.34948616  0.11938164  0.65173992  1  0.057896  0  0.102752  0.104375  0  1.012037  0
H  H170  1  0.11918290  0.65032246  0.90178532  1  0.070374  0  0.102746  0.104352  0  1.01196  0
H  H171  1  0.88080792  0.34966087  0.40177848  1  0.07085  0  0.102818  0.104476  0  1.011835  0
H  H172  1  0.34947419  0.88058914  0.84825626  1  0.058308  0  0.102885  0.104472  0  1.01198  0
H  H173  1  0.65054420  0.11941028  0.34826576  1  0.057114  0  0.102746  0.104323  0  1.012124  0
H  H174  1  0.88081664  0.65032522  0.09821850  1  0.070924  0  0.102745  0.104387  0  1.011943  0
H  H175  1  0.11923014  0.34961627  0.59822998  1  0.059645  0  0.102834  0.104483  0  1.011851  0
C  C176  1  0.53662480  0.71362792  0.15169674  1  0.298289  0  0.096785  0.172824  0  4.01944  0
C  C177  1  0.46336630  0.28637144  0.65168204  1  0.28146  0  0.096593  0.173486  0  4.018661  0
C  C178  1  0.28621634  0.53654086  0.90171297  1  0.267455  0  0.096917  0.173606  0  4.017971  0
C  C179  1  0.71378476  0.46345650  0.40170330  1  0.267292  0  0.096792  0.173771  0  4.018168  0
C  C180  1  0.46337741  0.71361354  0.84830477  1  0.297354  0  0.096811  0.173217  0  4.018887  0
C  C181  1  0.53662882  0.28636998  0.34831019  1  0.298069  0  0.096751  0.173162  0  4.018552  0
C  C182  1  0.71379522  0.53653393  0.09829354  1  0.267627  0  0.09687  0.173805  0  4.018161  0
C  C183  1  0.28621507  0.46345908  0.59829038  1  0.266979  0  0.097005  0.173718  0  4.018047  0
C  C184  1  0.84997032  0.25090166  0.81214144  1  0.9723  0  0.143565  0.102212  0  3.883233  0
C  C185  1  0.15010375  0.74917394  0.31215348  1  0.971789  0  0.143765  0.102485  0  3.883053  0
C  C186  1  0.74886714  0.84991317  0.56211617  1  0.973711  0  0.144112  0.102905  0  3.883049  0
C  C187  1  0.25100690  0.15005488  0.06213333  1  0.972852  0  0.143765  0.102451  0  3.883373  0
C  C188  1  0.15014763  0.25098133  0.18787033  1  0.972355  0  0.143757  0.102473  0  3.883161  0
C  C189  1  0.84993478  0.74916567  0.68784308  1  0.971082  0  0.143934  0.102677  0  3.882887  0
C  C190  1  0.25097910  0.84991553  0.43787086  1  0.972235  0  0.143897  0.102794  0  3.88282  0
C  C191  1  0.74898505  0.14997382  0.93788192  1  0.972595  0  0.143879  0.102921  0  3.882641  0
C  C192  1  0.49238456  0.90793193  0.05379352  1  0.93329  0  0.143684  0.093346  0  3.907911  0
C  C193  1  0.50750269  0.09190689  0.55379794  1  0.947714  0  0.143214  0.092594  0  3.908089  0
C  C194  1  0.09188122  0.49246907  0.80380891  1  0.94659  0  0.143188  0.092854  0  3.907971  0
C  C195  1  0.90814521  0.50759811  0.30382109  1  0.945823  0  0.143546  0.093906  0  3.908049  0
C  C196  1  0.50756563  0.90803736  0.94620384  1  0.936534  0  0.143303  0.09308  0  3.907993  0
C  C197  1  0.49236377  0.09197092  0.44619676  1  0.933984  0  0.143567  0.093667  0  3.90758  0
C  C198  1  0.90818603  0.49247982  0.19618598  1  0.947385  0  0.143522  0.093266  0  3.907961  0
C  C199  1  0.09194777  0.50762878  0.69618817  1  0.945243  0  0.143352  0.09352  0  3.907907  0
C  C200  1  0.31964504  0.86003472  0.03254193  1  0.419321  0  0.007389  -0.017617  0  3.999464  0
C  C201  1  0.68019132  0.13979747  0.53252846  1  0.418459  0  0.007763  -0.016974  0  3.998769  0
C  C202  1  0.13981941  0.31977156  0.78252769  1  0.419171  0  0.007724  -0.017174  0  3.99959  0
C  C203  1  0.86020105  0.68031145  0.28254915  1  0.419633  0  0.007947  -0.015956  0  3.999038  0
C  C204  1  0.68027952  0.86013008  0.96746752  1  0.419478  0  0.007787  -0.016551  0  3.999534  0
C  C205  1  0.31964460  0.13991854  0.46744935  1  0.420199  0  0.007699  -0.017003  0  3.999332  0
C  C206  1  0.86023644  0.31980171  0.21746767  1  0.416847  0  0.007824  -0.017044  0  3.999385  0
C  C207  1  0.13988367  0.68036410  0.71745693  1  0.419151  0  0.007663  -0.016974  0  3.999216  0
C  C208  1  0.89785156  0.31076694  0.87213027  1  -0.012391  0  -0.09214  -0.15999  0  4.007088  0
C  C209  1  0.10214462  0.68924345  0.37213315  1  -0.012715  0  -0.092048  -0.159607  0  4.007188  0
C  C210  1  0.68896884  0.89791579  0.62209539  1  -0.008953  0  -0.092043  -0.159899  0  4.00656  0
C  C211  1  0.31099019  0.10207413  0.12210595  1  -0.009582  0  -0.092037  -0.160146  0  4.007189  0
C  C212  1  0.10218586  0.31077755  0.12788540  1  -0.014678  0  -0.091911  -0.159608  0  4.007158  0
C  C213  1  0.89783215  0.68923520  0.62786492  1  -0.012076  0  -0.092124  -0.15992  0  4.006921  0
C  C214  1  0.31099384  0.89793746  0.37789872  1  -0.009651  0  -0.09215  -0.160115  0  4.006972  0
C  C215  1  0.68901731  0.10204988  0.87790014  1  -0.00862  0  -0.091952  -0.160186  0  4.007026  0
C  C216  1  0.97038409  0.22726777  0.85643149  1  0.348645  0  0.094212  0.170563  0  4.022379  0
C  C217  1  0.02963414  0.77276533  0.35643205  1  0.348829  0  0.094112  0.170168  0  4.022129  0
C  C218  1  0.77247583  0.97043421  0.60639502  1  0.343782  0  0.094061  0.1694  0  4.02233  0
C  C219  1  0.22747718  0.02953814  0.10641040  1  0.34204  0  0.09432  0.170501  0  4.02237  0
C  C220  1  0.02968312  0.22727763  0.14358976  1  0.349404  0  0.093785  0.169509  0  4.022784  0
C  C221  1  0.97038306  0.77274613  0.64355836  1  0.348253  0  0.094106  0.169948  0  4.022408  0
C  C222  1  0.22746490  0.97045361  0.39359524  1  0.341539  0  0.094273  0.170148  0  4.022219  0
C  C223  1  0.77253449  0.02950634  0.89359579  1  0.342293  0  0.094341  0.170603  0  4.02237  0
C  C224  1  0.50808734  0.59914557  0.19640867  1  0.910989  0  0.143593  0.109492  0  3.851966  0
C  C225  1  0.49195666  0.40090128  0.69640389  1  0.910522  0  0.143705  0.109847  0  3.851449  0
C  C226  1  0.40084268  0.50806397  0.94641698  1  0.912474  0  0.143938  0.109991  0  3.851777  0
C  C227  1  0.59913734  0.49190315  0.44640641  1  0.911296  0  0.143834  0.109941  0  3.851325  0
C  C228  1  0.49193909  0.59910433  0.80358927  1  0.911175  0  0.143768  0.109723  0  3.851961  0
C  C229  1  0.50810037  0.40093471  0.30359815  1  0.91155  0  0.143844  0.109856  0  3.851943  0
C  C230  1  0.59915480  0.50805251  0.05359000  1  0.911518  0  0.143854  0.110071  0  3.851539  0
C  C231  1  0.40081290  0.49191549  0.55358660  1  0.911018  0  0.143592  0.109452  0  3.851613  0
C  C232  1  0.11133612  0.44010885  0.97626452  1  0.473258  0  0.00756  -0.012769  0  4.016371  0
C  C233  1  0.88866014  0.55991271  0.47626181  1  0.472322  0  0.007349  -0.012881  0  4.016007  0
C  C234  1  0.55998550  0.11140561  0.72625932  1  0.473601  0  0.00724  -0.01333  0  4.016488  0
C  C235  1  0.44016555  0.88867321  0.22626578  1  0.473164  0  0.00753  -0.013027  0  4.016999  0
C  C236  1  0.88872249  0.43993172  0.02374115  1  0.472094  0  0.007082  -0.013096  0  4.015565  0
C  C237  1  0.11126361  0.55982919  0.52373458  1  0.473574  0  0.00744  -0.012925  0  4.016678  0
C  C238  1  0.44012843  0.11133430  0.27374209  1  0.473538  0  0.007284  -0.013279  0  4.016997  0
C  C239  1  0.55986483  0.88866527  0.77373154  1  0.472979  0  0.007497  -0.012935  0  4.016566  0
C  C240  1  0.90859413  0.08289069  0.79044610  1  0.482696  0  0.003761  -0.024592  0  4.013636  0
C  C241  1  0.09148882  0.91717349  0.29045904  1  0.482409  0  0.003813  -0.024673  0  4.01381  0
C  C242  1  0.91680245  0.90854537  0.54041413  1  0.483369  0  0.004107  -0.024078  0  4.014073  0
C  C243  1  0.08304020  0.09140189  0.04043601  1  0.48589  0  0.004066  -0.024287  0  4.0139  0
C  C244  1  0.09156565  0.08300891  0.20957870  1  0.486427  0  0.004351  -0.02381  0  4.013788  0
C  C245  1  0.90855845  0.91717947  0.70953407  1  0.481811  0  0.003873  -0.024302  0  4.013368  0
C  C246  1  0.08301197  0.90857290  0.45956073  1  0.485733  0  0.004099  -0.024234  0  4.014061  0
C  C247  1  0.91696764  0.09132600  0.95957307  1  0.48532  0  0.003823  -0.02412  0  4.013922  0
C  C248  1  0.96833047  0.08073696  0.81574645  1  0.227463  0  -0.014765  -0.133904  0  3.985738  0
C  C249  1  0.03169890  0.91931043  0.31575165  1  0.227097  0  -0.015087  -0.134365  0  3.98555  0
C  C250  1  0.91894014  0.96837846  0.56570519  1  0.224203  0  -0.014639  -0.133678  0  3.985273  0
C  C251  1  0.08095566  0.03157822  0.06572541  1  0.226311  0  -0.014491  -0.133376  0  3.985744  0
C  C252  1  0.03178257  0.08081113  0.18428353  1  0.223931  0  -0.01511  -0.134458  0  3.985411  0
C  C253  1  0.96834362  0.91930790  0.68424128  1  0.227951  0  -0.01514  -0.134669  0  3.985837  0
C  C254  1  0.08092389  0.96840600  0.43427316  1  0.225947  0  -0.014645  -0.133532  0  3.986165  0
C  C255  1  0.91906531  0.03153311  0.93427830  1  0.227612  0  -0.014555  -0.13394  0  3.986162  0
C  C256  1  0.05059805  0.44393693  0.95112171  1  0.264781  0  -0.009593  -0.11985  0  3.944888  0
C  C257  1  0.94941065  0.55608930  0.45112464  1  0.265068  0  -0.009677  -0.120088  0  3.944662  0
C  C258  1  0.55603818  0.05070920  0.70111098  1  0.265103  0  -0.009387  -0.119502  0  3.944631  0
C  C259  1  0.44407007  0.94935275  0.20111496  1  0.264796  0  -0.009248  -0.119262  0  3.944522  0
C  C260  1  0.94945108  0.44378037  0.04888381  1  0.266421  0  -0.009124  -0.119759  0  3.944469  0
C  C261  1  0.05054225  0.55600491  0.54887691  1  0.262522  0  -0.009228  -0.119417  0  3.944579  0
C  C262  1  0.44402712  0.05062748  0.29888860  1  0.263673  0  -0.009149  -0.119513  0  3.94399  0
C  C263  1  0.55595184  0.94934683  0.79888190  1  0.265152  0  -0.009332  -0.119313  0  3.944091  0
C  C264  1  0.04647255  0.29901113  0.91015473  1  0.367231  0  0.098642  0.174708  0  4.019175  0
C  C265  1  0.95350319  0.70098157  0.41015066  1  0.368028  0  0.098578  0.175159  0  4.018758  0
C  C266  1  0.70082294  0.04655119  0.66012232  1  0.370272  0  0.09853  0.175058  0  4.019081  0
C  C267  1  0.29920086  0.95348471  0.16013787  1  0.368566  0  0.098314  0.174806  0  4.019668  0
C  C268  1  0.95352966  0.29896851  0.08986537  1  0.369096  0  0.098307  0.174486  0  4.019553  0
C  C269  1  0.04643669  0.70095706  0.58984173  1  0.366761  0  0.098582  0.174511  0  4.019789  0
C  C270  1  0.29919474  0.04654505  0.33987138  1  0.369212  0  0.09823  0.174449  0  4.018989  0
C  C271  1  0.70082092  0.95347029  0.83986217  1  0.368131  0  0.098133  0.174524  0  4.019485  0
C  C272  1  0.55061240  0.85975169  0.11320060  1  0.012903  0  -0.092969  -0.16133  0  4.014485  0
C  C273  1  0.44934001  0.14018566  0.61320062  1  0.014113  0  -0.093195  -0.161893  0  4.014092  0
C  C274  1  0.13998521  0.55047550  0.86323888  1  0.018464  0  -0.093459  -0.161992  0  4.014762  0
C  C275  1  0.86000059  0.44953851  0.36323797  1  0.017022  0  -0.093471  -0.161969  0  4.015123  0
C  C276  1  0.44936647  0.85979320  0.88679468  1  0.012138  0  -0.093105  -0.161693  0  4.014919  0
C  C277  1  0.55062791  0.14021487  0.38679554  1  0.01309  0  -0.093144  -0.161876  0  4.014546  0
C  C278  1  0.86002123  0.55048194  0.13676406  1  0.018522  0  -0.093453  -0.162157  0  4.015215  0
C  C279  1  0.14005304  0.44952250  0.63676950  1  0.016923  0  -0.093358  -0.161689  0  4.014689  0
C  C280  1  0.16441391  0.26994233  0.95438576  1  0.937708  0  0.14125  0.093773  0  3.880536  0
C  C281  1  0.83549849  0.73002752  0.45437240  1  0.93433  0  0.141354  0.094321  0  3.880329  0
C  C282  1  0.73004417  0.16446985  0.70435661  1  0.936523  0  0.141392  0.094353  0  3.879751  0
C  C283  1  0.27005204  0.83562186  0.20437968  1  0.938457  0  0.141561  0.094475  0  3.880186  0
C  C284  1  0.83553587  0.26986730  0.04564272  1  0.936493  0  0.141463  0.094052  0  3.879636  0
C  C285  1  0.16435622  0.72998842  0.54561432  1  0.938943  0  0.141637  0.094431  0  3.880056  0
C  C286  1  0.27006903  0.16447999  0.29563403  1  0.93601  0  0.141462  0.094399  0  3.880391  0
C  C287  1  0.72998096  0.83560408  0.79561633  1  0.938611  0  0.141382  0.094425  0  3.880432  0
C  C288  1  0.46504822  0.78822149  0.09787761  1  0.329312  0  0.096223  0.17271  0  4.023251  0
C  C289  1  0.53485895  0.21170026  0.59786408  1  0.330576  0  0.096494  0.172645  0  4.023542  0
C  C290  1  0.21154980  0.46502021  0.84789161  1  0.328832  0  0.096928  0.173629  0  4.023087  0
C  C291  1  0.78843382  0.53499505  0.34789465  1  0.330399  0  0.096647  0.173521  0  4.023851  0
C  C292  1  0.53491512  0.78827403  0.90212633  1  0.331777  0  0.096551  0.172671  0  4.023508  0
C  C293  1  0.46506738  0.21173373  0.40212343  1  0.331284  0  0.096572  0.173349  0  4.02282  0
C  C294  1  0.78846682  0.46503984  0.15210981  1  0.327995  0  0.096937  0.173827  0  4.023177  0
C  C295  1  0.21160025  0.53502141  0.65210621  1  0.330247  0  0.096466  0.173249  0  4.023579  0
C  C296  1  0.45022741  0.64264929  0.13643271  1  0.028901  0  -0.08822  -0.153928  0  3.999097  0
C  C297  1  0.54969227  0.35736632  0.63641092  1  0.04595  0  -0.088174  -0.154324  0  3.999486  0
C  C298  1  0.35722485  0.45022128  0.88643132  1  0.027885  0  -0.08807  -0.153868  0  3.999151  0
C  C299  1  0.64275911  0.54977453  0.38642710  1  0.028135  0  -0.087968  -0.154002  0  3.999288  0
C  C300  1  0.54974241  0.64263185  0.86357809  1  0.029378  0  -0.08824  -0.153929  0  3.998837  0
C  C301  1  0.45024631  0.35736165  0.36357326  1  0.029104  0  -0.088328  -0.154282  0  3.999202  0
C  C302  1  0.64278101  0.45023593  0.11357407  1  0.028468  0  -0.088011  -0.153774  0  3.99894  0
C  C303  1  0.35720803  0.54982043  0.61356333  1  0.028552  0  -0.088075  -0.153889  0  3.999026  0
C  C304  1  0.41558694  0.67900591  0.10969380  1  -0.104238  0  -0.090236  -0.156345  0  3.993658  0
C  C305  1  0.58428193  0.32095126  0.60967197  1  -0.096683  0  -0.090348  -0.15605  0  3.993112  0
C  C306  1  0.32081703  0.41562398  0.85969256  1  -0.07676  0  -0.090261  -0.156392  0  3.994031  0
C  C307  1  0.67916481  0.58438175  0.35969175  1  -0.076566  0  -0.090136  -0.156262  0  3.993877  0
C  C308  1  0.58436300  0.67903364  0.89031643  1  -0.094675  0  -0.090379  -0.15626  0  3.993649  0
C  C309  1  0.41561847  0.32096398  0.39030986  1  -0.094209  0  -0.090389  -0.156552  0  3.993657  0
C  C310  1  0.67919835  0.41565191  0.14031280  1  -0.075789  0  -0.090322  -0.156601  0  3.993446  0
C  C311  1  0.32083025  0.58443760  0.64030121  1  -0.07874  0  -0.090235  -0.156649  0  3.994109  0
C  C312  1  0.11981487  0.21673957  0.89437074  1  -0.033295  0  -0.090408  -0.158094  0  4.010793  0
C  C313  1  0.88017823  0.78326457  0.39436577  1  -0.033542  0  -0.090603  -0.158535  0  4.010547  0
C  C314  1  0.78309037  0.11986745  0.64433880  1  0.037731  0  -0.090382  -0.158273  0  4.011034  0
C  C315  1  0.21691239  0.88014619  0.14435793  1  0.03852  0  -0.090476  -0.158259  0  4.011138  0
C  C316  1  0.88022553  0.21669625  0.10565579  1  -0.035264  0  -0.090465  -0.158231  0  4.010799  0
C  C317  1  0.11977217  0.78324128  0.60562247  1  -0.033826  0  -0.090504  -0.158164  0  4.01097  0
C  C318  1  0.21691001  0.11988149  0.35565105  1  0.037935  0  -0.090371  -0.158006  0  4.010593  0
C  C319  1  0.78309673  0.88012147  0.85564095  1  0.038657  0  -0.090354  -0.158095  0  4.010637  0
C  C320  1  0.31775239  0.79581358  0.05727370  1  0.289131  0  -0.007327  -0.114699  0  3.942655  0
C  C321  1  0.68210135  0.20407003  0.55725465  1  0.288701  0  -0.00732  -0.11483  0  3.942358  0
C  C322  1  0.20398106  0.31780498  0.80726527  1  0.288815  0  -0.007278  -0.114436  0  3.94288  0
C  C323  1  0.79599781  0.68223957  0.30727932  1  0.288083  0  -0.007376  -0.114845  0  3.942434  0
C  C324  1  0.68218637  0.79589023  0.94273762  1  0.289249  0  -0.007534  -0.11541  0  3.942499  0
C  C325  1  0.31777748  0.20416596  0.44272275  1  0.289773  0  -0.007466  -0.114704  0  3.942492  0
C  C326  1  0.79603366  0.31784284  0.19273486  1  0.289072  0  -0.007551  -0.11467  0  3.94338  0
C  C327  1  0.20405408  0.68228558  0.69272303  1  0.289821  0  -0.007652  -0.115094  0  3.942313  0
C  C328  1  0.93469939  0.34525279  0.89885424  1  -0.044403  0  -0.088849  -0.152077  0  3.984309  0
C  C329  1  0.06528298  0.65474861  0.39885287  1  -0.044456  0  -0.088887  -0.152577  0  3.984335  0
C  C330  1  0.65455330  0.93477657  0.64882039  1  -0.045625  0  -0.088853  -0.151914  0  3.98367  0
C  C331  1  0.34546215  0.06524555  0.14883006  1  -0.044809  0  -0.08887  -0.1521  0  3.984132  0
C  C332  1  0.06529481  0.34523517  0.10116334  1  -0.039822  0  -0.088805  -0.152088  0  3.984373  0
C  C333  1  0.93467147  0.65473133  0.60114287  1  -0.043917  0  -0.088635  -0.1517  0  3.983887  0
C  C334  1  0.34546064  0.93478180  0.35117649  1  -0.044926  0  -0.088767  -0.151724  0  3.984051  0
C  C335  1  0.65456150  0.06522764  0.85117388  1  -0.044807  0  -0.088755  -0.151836  0  3.98394  0
C  C336  1  0.68039580  0.71510137  0.19288098  1  0.203726  0  -0.018019  -0.145838  0  3.991442  0
C  C337  1  0.31965548  0.28490067  0.69287592  1  0.205802  0  -0.017991  -0.145597  0  3.99204  0
C  C338  1  0.28481458  0.68036461  0.94290097  1  0.205226  0  -0.017941  -0.145342  0  3.992653  0
C  C339  1  0.71520643  0.31961951  0.44288363  1  0.205008  0  -0.017855  -0.145232  0  3.992508  0
C  C340  1  0.31963164  0.71508136  0.80711492  1  0.204634  0  -0.01797  -0.145401  0  3.991511  0
C  C341  1  0.68037807  0.28488824  0.30712566  1  0.205448  0  -0.017882  -0.145497  0  3.991931  0
C  C342  1  0.71523550  0.68032311  0.05710490  1  0.204844  0  -0.017923  -0.145342  0  3.992688  0
C  C343  1  0.28475581  0.31964661  0.55710652  1  0.204855  0  -0.017834  -0.145479  0  3.992547  0
C  C344  1  0.08165641  0.18070775  0.86785971  1  0.033428  0  -0.097743  -0.166957  0  4.019297  0
C  C345  1  0.91835804  0.81932323  0.36785840  1  0.032645  0  -0.097743  -0.16689  0  4.01884  0
C  C346  1  0.81911248  0.08168538  0.61782822  1  -0.035124  0  -0.09754  -0.16608  0  4.018496  0
C  C347  1  0.18087793  0.91829047  0.11784573  1  -0.033322  0  -0.097687  -0.166312  0  4.018995  0
C  C348  1  0.91841227  0.18067759  0.13216594  1  0.031924  0  -0.097714  -0.166568  0  4.019878  0
C  C349  1  0.08164177  0.81930428  0.63213114  1  0.033485  0  -0.097957  -0.166967  0  4.019853  0
C  C350  1  0.18086196  0.08171118  0.38215926  1  -0.033644  0  -0.097754  -0.166332  0  4.018893  0
C  C351  1  0.81913653  0.91825651  0.88215489  1  -0.033612  0  -0.097872  -0.166717  0  4.019438  0
C  C352  1  0.67471158  0.65986905  0.21863860  1  0.489943  0  0.005317  -0.013381  0  4.001893  0
C  C353  1  0.32537240  0.34016405  0.71863414  1  0.490025  0  0.005478  -0.013148  0  4.001746  0
C  C354  1  0.34014343  0.67471256  0.96864988  1  0.489156  0  0.0054  -0.013799  0  4.003745  0
C  C355  1  0.65987658  0.32525018  0.46862951  1  0.490862  0  0.00519  -0.013714  0  4.002813  0
C  C356  1  0.32533072  0.65983652  0.78135638  1  0.490245  0  0.005488  -0.013227  0  4.001512  0
C  C357  1  0.67469405  0.34016007  0.28137107  1  0.489297  0  0.005308  -0.013474  0  4.001967  0
C  C358  1  0.65990870  0.67466891  0.03135613  1  0.489576  0  0.005324  -0.013516  0  4.002841  0
C  C359  1  0.34006676  0.32528100  0.53135654  1  0.490272  0  0.00505  -0.013914  0  4.003266  0
C  C360  1  0.58644370  0.82233688  0.13976532  1  0.04276  0  -0.09544  -0.162027  0  4.019718  0
C  C361  1  0.41354260  0.17761954  0.63976433  1  0.042631  0  -0.09541  -0.162141  0  4.020226  0
C  C362  1  0.17742655  0.58630134  0.88980304  1  0.058174  0  -0.095767  -0.162428  0  4.019648  0
C  C363  1  0.82256506  0.41369804  0.38979785  1  0.05784  0  -0.095688  -0.162514  0  4.019959  0
C  C364  1  0.41355414  0.82235390  0.86022990  1  0.042465  0  -0.095658  -0.162216  0  4.019976  0
C  C365  1  0.58645783  0.17763322  0.36023461  1  0.042938  0  -0.095477  -0.162019  0  4.019737  0
C  C366  1  0.82257875  0.58629644  0.11020140  1  0.057749  0  -0.095649  -0.162367  0  4.020035  0
C  C367  1  0.17746817  0.41368144  0.61020623  1  0.0697  0  -0.095749  -0.162621  0  4.019691  0
N  N368  1  0.83534594  0.18895267  0.78854556  1  -1.180552  0  -0.323147  -0.225904  0  3.432639  0
N  N369  1  0.16474482  0.81113356  0.28855993  1  -1.178748  0  -0.323413  -0.226223  0  3.432772  0
N  N370  1  0.81080704  0.83523313  0.53852213  1  -1.179536  0  -0.323971  -0.227007  0  3.433616  0
N  N371  1  0.18903313  0.16473243  0.03854086  1  -1.180817  0  -0.32351  -0.226354  0  3.432347  0
N  N372  1  0.16480861  0.18905870  0.21146686  1  -1.181883  0  -0.32374  -0.226692  0  3.433761  0
N  N373  1  0.83529551  0.81114228  0.71143327  1  -1.178718  0  -0.323296  -0.22625  0  3.432382  0
N  N374  1  0.18899941  0.83523432  0.46146116  1  -1.181098  0  -0.323605  -0.226621  0  3.432052  0
N  N375  1  0.81095274  0.16462943  0.96147729  1  -1.180315  0  -0.323481  -0.226446  0  3.431426  0
N  N376  1  0.17996233  0.33135006  0.97800914  1  -1.232445  0  -0.33124  -0.225255  0  3.49776  0
N  N377  1  0.81996335  0.66864193  0.47799720  1  -1.231253  0  -0.33136  -0.225615  0  3.497085  0
N  N378  1  0.66875211  0.17999359  0.72799087  1  -1.233341  0  -0.331286  -0.22539  0  3.497118  0
N  N379  1  0.33140232  0.82011371  0.22800715  1  -1.232609  0  -0.331387  -0.225387  0  3.498118  0
N  N380  1  0.82002576  0.33121591  0.02200825  1  -1.232894  0  -0.331424  -0.225407  0  3.496389  0
N  N381  1  0.17989236  0.66858207  0.52198872  1  -1.232147  0  -0.331432  -0.225698  0  3.497573  0
N  N382  1  0.33140460  0.17997776  0.27200706  1  -1.23226  0  -0.331312  -0.225415  0  3.498477  0
N  N383  1  0.66863866  0.82009633  0.77198865  1  -1.23221  0  -0.331264  -0.225408  0  3.49804  0
N  N384  1  0.42915535  0.92756413  0.03066615  1  -1.179455  0  -0.327979  -0.221027  0  3.498454  0
N  N385  1  0.57068695  0.07222550  0.53065918  1  -1.180276  0  -0.328012  -0.220884  0  3.496725  0
N  N386  1  0.07228104  0.42930848  0.78065953  1  -1.1811  0  -0.328005  -0.221242  0  3.497704  0
N  N387  1  0.92776690  0.57078628  0.28067997  1  -1.181999  0  -0.328244  -0.222049  0  3.499002  0
N  N388  1  0.57076708  0.92768585  0.96933897  1  -1.181562  0  -0.327871  -0.221411  0  3.499024  0
N  N389  1  0.42913706  0.07232012  0.46932860  1  -1.180473  0  -0.328002  -0.221523  0  3.497811  0
N  N390  1  0.92779944  0.42932006  0.21933142  1  -1.180281  0  -0.328214  -0.221277  0  3.497802  0
N  N391  1  0.07234094  0.57083025  0.71932782  1  -1.180423  0  -0.327883  -0.221258  0  3.498359  0
N  N392  1  0.42807000  0.82754095  0.07104576  1  -1.250233  0  -0.230416  -0.008348  0  3.808922  0
N  N393  1  0.57178633  0.17232889  0.57103740  1  -1.266589  0  -0.23042  -0.007746  0  3.808389  0
N  N394  1  0.17222200  0.42810721  0.82105550  1  -1.264061  0  -0.230395  -0.008443  0  3.808637  0
N  N395  1  0.82776228  0.57192451  0.32106412  1  -1.263278  0  -0.230356  -0.008863  0  3.809044  0
N  N396  1  0.57186775  0.82762549  0.92895702  1  -1.254482  0  -0.230354  -0.007638  0  3.807736  0
N  N397  1  0.42810099  0.17239670  0.42895022  1  -1.252911  0  -0.230398  -0.008573  0  3.809032  0
N  N398  1  0.82780235  0.42813348  0.17894419  1  -1.263678  0  -0.230538  -0.008874  0  3.809211  0
N  N399  1  0.17229028  0.57196376  0.67893868  1  -1.263964  0  -0.230272  -0.008578  0  3.808425  0
N  N400  1  0.56734334  0.58877187  0.22050145  1  -1.189186  0  -0.330223  -0.226914  0  3.460634  0
N  N401  1  0.43271597  0.41125135  0.72048863  1  -1.191212  0  -0.330529  -0.227392  0  3.461695  0
N  N402  1  0.41127021  0.56736304  0.97050392  1  -1.190657  0  -0.33037  -0.226797  0  3.461196  0
N  N403  1  0.58873635  0.43259356  0.47048844  1  -1.189541  0  -0.330204  -0.226977  0  3.460872  0
N  N404  1  0.43269371  0.58874302  0.77949678  1  -1.191124  0  -0.330384  -0.227105  0  3.460418  0
N  N405  1  0.56735198  0.41128687  0.27951479  1  -1.190537  0  -0.330429  -0.227072  0  3.461547  0
N  N406  1  0.58875816  0.56733152  0.02950361  1  -1.190164  0  -0.330434  -0.227072  0  3.461219  0
N  N407  1  0.41120734  0.43260579  0.52950276  1  -1.189632  0  -0.330125  -0.226655  0  3.461409  0
N  N408  1  0.08542590  0.33522933  0.93704480  1  -1.272368  0  -0.230812  -0.008423  0  3.8137  0
N  N409  1  0.91453798  0.66476752  0.43703684  1  -1.272481  0  -0.230612  -0.008382  0  3.813281  0
N  N410  1  0.66467917  0.08550959  0.68701610  1  -1.271079  0  -0.23074  -0.00858  0  3.813039  0
N  N411  1  0.33539361  0.91455294  0.18703097  1  -1.269963  0  -0.231275  -0.009121  0  3.813933  0
N  N412  1  0.91455832  0.33514633  0.06297556  1  -1.273174  0  -0.230643  -0.007972  0  3.814053  0
N  N413  1  0.08537871  0.66471702  0.56295487  1  -1.271779  0  -0.231188  -0.008618  0  3.814233  0
N  N414  1  0.33539064  0.08548878  0.31297832  1  -1.270483  0  -0.230926  -0.008545  0  3.812988  0
N  N415  1  0.66462940  0.91454487  0.81296711  1  -1.270717  0  -0.23106  -0.008922  0  3.813296  0
N  N416  1  0.93115368  0.18893797  0.82965518  1  -1.262845  0  -0.232153  -0.013161  0  3.821016  0
N  N417  1  0.06887645  0.81110504  0.32966007  1  -1.26324  0  -0.232027  -0.01268  0  3.820397  0
N  N418  1  0.81077006  0.93119112  0.57961815  1  -1.266031  0  -0.232523  -0.013028  0  3.820898  0
N  N419  1  0.18914336  0.06877429  0.07963543  1  -1.263382  0  -0.232714  -0.013694  0  3.821441  0
N  N420  1  0.06893533  0.18899286  0.17036621  1  -1.263074  0  -0.23198  -0.012141  0  3.820188  0
N  N421  1  0.93116294  0.81109308  0.67033354  1  -1.26226  0  -0.23209  -0.012523  0  3.819788  0
N  N422  1  0.18911761  0.93120557  0.42036763  1  -1.26249  0  -0.23253  -0.013425  0  3.820918  0
N  N423  1  0.81086426  0.06873043  0.92037356  1  -1.263655  0  -0.232613  -0.013616  0  3.821241  0
N  N424  1  0.57330905  0.67641073  0.17869092  1  -1.246109  0  -0.231217  -0.011219  0  3.824673  0
N  N425  1  0.42669925  0.32359187  0.67868394  1  -1.245106  0  -0.231076  -0.011798  0  3.824082  0
N  N426  1  0.32348828  0.57326570  0.92870867  1  -1.244878  0  -0.231583  -0.012218  0  3.824743  0
N  N427  1  0.67652064  0.42671899  0.42869618  1  -1.244709  0  -0.231408  -0.012036  0  3.824422  0
N  N428  1  0.42670090  0.67638958  0.82130782  1  -1.245017  0  -0.231362  -0.012162  0  3.825221  0
N  N429  1  0.57332279  0.32359350  0.32131543  1  -1.245487  0  -0.231191  -0.011642  0  3.824291  0
N  N430  1  0.67653054  0.57324078  0.07129935  1  -1.244762  0  -0.231494  -0.01235  0  3.825006  0
N  N431  1  0.32345694  0.42672651  0.57129661  1  -1.244602  0  -0.231379  -0.011431  0  3.824611  0
O  O432  1  0.34809638  0.10574800  0.98220186  1  -1.199731  0  -0.64487  -0.946978  0  1.901283  0
O  O433  1  0.65177355  0.89420748  0.48218309  1  -1.199777  0  -0.64501  -0.947119  0  1.901315  0
O  O434  1  0.89428850  0.34813014  0.73219146  1  -1.199479  0  -0.645036  -0.947221  0  1.901595  0
O  O435  1  0.10577648  0.65200526  0.23222268  1  -1.199932  0  -0.644891  -0.947075  0  1.90148  0
O  O436  1  0.65180054  0.10572030  0.01782720  1  -1.199311  0  -0.645065  -0.947195  0  1.901789  0
O  O437  1  0.34807597  0.89417507  0.51780680  1  -1.199893  0  -0.644828  -0.946935  0  1.901301  0
O  O438  1  0.10580297  0.34811021  0.26779865  1  -1.199813  0  -0.644865  -0.947025  0  1.90117  0
O  O439  1  0.89425857  0.65201913  0.76777512  1  -1.199741  0  -0.644887  -0.9469  0  1.901349  0
O  O440  1  0.39174569  0.37080363  0.02742703  1  -1.197751  0  -0.648414  -0.960851  0  1.930209  0
O  O441  1  0.60823598  0.62912667  0.52740963  1  -1.197278  0  -0.648463  -0.961026  0  1.930218  0
O  O442  1  0.62932883  0.39176130  0.77741526  1  -1.19716  0  -0.64852  -0.961008  0  1.930154  0
O  O443  1  0.37083789  0.60835240  0.27742597  1  -1.197199  0  -0.64852  -0.961034  0  1.930161  0
O  O444  1  0.60825051  0.37073106  0.97259046  1  -1.196985  0  -0.648525  -0.960977  0  1.93011  0
O  O445  1  0.39166873  0.62912113  0.47257974  1  -1.197726  0  -0.648522  -0.9612  0  1.930174  0
O  O446  1  0.37082493  0.39176218  0.22258709  1  -1.197655  0  -0.648527  -0.960943  0  1.930133  0
O  O447  1  0.62925846  0.60827181  0.72256584  1  -1.197562  0  -0.648394  -0.96106  0  1.930523  0
