# generated using pymatgen
data_Zn5H31C36N9O16
_symmetry_space_group_name_H-M   'P 1'
_cell_length_a   15.52348172
_cell_length_b   19.36058712
_cell_length_c   25.33946352
_cell_angle_alpha   89.99993918
_cell_angle_beta   89.99998917
_cell_angle_gamma   89.99997083
_symmetry_Int_Tables_number   1
_chemical_formula_structural   Zn5H31C36N9O16
_chemical_formula_sum   'Zn20 H124 C144 N36 O64'
_cell_volume   7615.61663660
_cell_formula_units_Z   4
loop_
 _symmetry_equiv_pos_site_id
 _symmetry_equiv_pos_as_xyz
  1  'x, y, z'
loop_
 _atom_site_type_symbol
 _atom_site_label
 _atom_site_symmetry_multiplicity
 _atom_site_fract_x
 _atom_site_fract_y
 _atom_site_fract_z
 _atom_site_occupancy
 _atom_site_pbe_bader_charge
 _atom_site_pbe_bader_spin_density
 _atom_site_pbe_cm5_charge
 _atom_site_pbe_ddec_charge
 _atom_site_pbe_ddec_spin_density
 _atom_site_pbe_ddec_sum_bond_order
 _atom_site_pbe_magmom
Zn  Zn0  1  0.45253604  0.65947111  0.76886721  1  1.249955  0  0.693507  0.77072  0  2.393047  0
Zn  Zn1  1  0.04746472  0.34052873  0.26886625  1  1.249914  0  0.693482  0.77069  0  2.393087  0
Zn  Zn2  1  0.95253658  0.84052856  0.73113268  1  1.24997  0  0.693488  0.770747  0  2.393022  0
Zn  Zn3  1  0.54746473  0.15947061  0.23113305  1  1.249901  0  0.693488  0.770694  0  2.393094  0
Zn  Zn4  1  0.54746467  0.34052917  0.23113298  1  1.249896  0  0.693483  0.770681  0  2.393108  0
Zn  Zn5  1  0.95253534  0.65947155  0.73113236  1  1.249956  0  0.693496  0.770727  0  2.393071  0
Zn  Zn6  1  0.04746478  0.15947172  0.26886632  1  1.249936  0  0.69351  0.770737  0  2.393039  0
Zn  Zn7  1  0.45253598  0.84052863  0.76886713  1  1.249932  0  0.693497  0.770731  0  2.393068  0
Zn  Zn8  1  0.47377362  0.53498382  0.54732705  1  1.293864  0  0.671161  0.84928  0  2.378774  0
Zn  Zn9  1  0.02622721  0.46501582  0.04732638  1  1.294042  0  0.671143  0.849266  0  2.378869  0
Zn  Zn10  1  0.97377723  0.96501533  0.95267205  1  1.293814  0  0.671193  0.849311  0  2.378798  0
Zn  Zn11  1  0.52622465  0.03498405  0.45267292  1  1.293726  0  0.671166  0.849287  0  2.378724  0
Zn  Zn12  1  0.52622580  0.46501647  0.45267314  1  1.29371  0  0.671153  0.849237  0  2.378854  0
Zn  Zn13  1  0.97377543  0.53498550  0.95267301  1  1.29384  0  0.671159  0.849312  0  2.378738  0
Zn  Zn14  1  0.02622541  0.03498444  0.04732695  1  1.293839  0  0.671162  0.849284  0  2.378838  0
Zn  Zn15  1  0.47377219  0.96501520  0.54732648  1  1.294095  0  0.671167  0.849287  0  2.378853  0
Zn  Zn16  1  0.32148166  0.74999995  0.69411856  1  1.21095  0  0.734065  0.7358  0  2.472763  0
Zn  Zn17  1  0.17852041  0.24999999  0.19411844  1  1.211302  0  0.734063  0.735765  0  2.472764  0
Zn  Zn18  1  0.82148223  0.75000029  0.80588214  1  1.210927  0  0.734075  0.735766  0  2.472827  0
Zn  Zn19  1  0.67851969  0.24999982  0.30588163  1  1.211297  0  0.734072  0.735795  0  2.47273  0
H  H20  1  0.33897965  0.75000039  0.79330771  1  0.627085  0  0.316866  0.410847  0  0.870239  0
H  H21  1  0.16102045  0.24999993  0.29330720  1  0.627017  0  0.31688  0.410864  0  0.870221  0
H  H22  1  0.83897896  0.75000087  0.70669298  1  0.627095  0  0.316885  0.410889  0  0.870163  0
H  H23  1  0.66102041  0.24999989  0.20669248  1  0.627088  0  0.316869  0.410852  0  0.870234  0
H  H24  1  0.50130672  0.74999763  0.26595557  1  0.610161  0  0.332942  0.369124  0  0.881071  0
H  H25  1  0.99869328  0.24999478  0.76595568  1  0.610156  0  0.332943  0.367579  0  0.882805  0
H  H26  1  0.00130742  0.75000137  0.23404372  1  0.610192  0  0.332984  0.367616  0  0.882766  0
H  H27  1  0.49869334  0.25000007  0.73404461  1  0.610177  0  0.332973  0.369137  0  0.881056  0
H  H28  1  0.51364157  0.43353153  0.97151208  1  0.612133  0  0.336113  0.374479  0  0.864966  0
H  H29  1  0.98635901  0.56646783  0.47151206  1  0.612146  0  0.336132  0.374498  0  0.864968  0
H  H30  1  0.01364052  0.06646817  0.52848788  1  0.612156  0  0.336109  0.374432  0  0.86502  0
H  H31  1  0.48635966  0.93353097  0.02848757  1  0.612164  0  0.336108  0.374444  0  0.86498  0
H  H32  1  0.48635978  0.56646824  0.02848772  1  0.612162  0  0.336114  0.374453  0  0.865021  0
H  H33  1  0.01364041  0.43353194  0.52848773  1  0.612154  0  0.336135  0.374482  0  0.864996  0
H  H34  1  0.98635890  0.93353263  0.47151231  1  0.612145  0  0.336131  0.374501  0  0.864961  0
H  H35  1  0.51364233  0.06646725  0.97151222  1  0.612118  0  0.336099  0.374435  0  0.865029  0
H  H36  1  0.35804824  0.68890118  0.54224914  1  0.104471  0  0.110006  0.168663  0  0.984132  0
H  H37  1  0.14195194  0.31109846  0.04224859  1  0.104445  0  0.109995  0.168624  0  0.984158  0
H  H38  1  0.85805001  0.81109904  0.95775234  1  0.103175  0  0.110023  0.168719  0  0.984171  0
H  H39  1  0.64195186  0.18890136  0.45775109  1  0.098877  0  0.110005  0.168672  0  0.984104  0
H  H40  1  0.64195182  0.31109859  0.45775104  1  0.104454  0  0.109994  0.168644  0  0.984143  0
H  H41  1  0.85805005  0.68890182  0.95775081  1  0.097403  0  0.109985  0.168635  0  0.984131  0
H  H42  1  0.14195262  0.18890175  0.04224824  1  0.098859  0  0.11  0.168652  0  0.984114  0
H  H43  1  0.35804820  0.81109892  0.54224909  1  0.098881  0  0.110001  0.168658  0  0.984126  0
H  H44  1  0.26644765  0.69036290  0.58539371  1  0.035288  0  0.096763  0.13402  0  1.012078  0
H  H45  1  0.23355316  0.30963668  0.08539314  1  0.035279  0  0.096764  0.134035  0  1.012044  0
H  H46  1  0.76644944  0.80963736  0.91460699  1  0.035003  0  0.096798  0.134035  0  1.012046  0
H  H47  1  0.73355310  0.19036259  0.41460692  1  0.028604  0  0.096772  0.134043  0  1.012045  0
H  H48  1  0.73355306  0.30963738  0.41460687  1  0.035291  0  0.096764  0.134041  0  1.012049  0
H  H49  1  0.76644948  0.69036309  0.91460586  1  0.028631  0  0.096791  0.134052  0  1.01206  0
H  H50  1  0.23355256  0.19036344  0.08539319  1  0.028599  0  0.096762  0.134027  0  1.012059  0
H  H51  1  0.26644825  0.80963718  0.58539405  1  0.028615  0  0.096762  0.134019  0  1.012072  0
H  H52  1  0.29711284  0.61325369  0.55064280  1  0.111899  0  0.107054  0.167773  0  1.022677  0
H  H53  1  0.20288734  0.38674646  0.05064179  1  0.111887  0  0.107035  0.167745  0  1.022708  0
H  H54  1  0.79711521  0.88674708  0.94935789  1  0.111909  0  0.107046  0.167769  0  1.022691  0
H  H55  1  0.70288667  0.11325334  0.44935828  1  0.111888  0  0.107056  0.167791  0  1.022642  0
H  H56  1  0.70288658  0.38674660  0.44935817  1  0.111888  0  0.107037  0.167765  0  1.022668  0
H  H57  1  0.79711465  0.61325434  0.94935761  1  0.111912  0  0.107063  0.167812  0  1.022654  0
H  H58  1  0.20288679  0.11325372  0.05064229  1  0.111894  0  0.107047  0.167769  0  1.02269  0
H  H59  1  0.29711404  0.88674642  0.55064309  1  0.111921  0  0.107045  0.167771  0  1.022703  0
H  H60  1  0.59997144  0.55202812  0.67449547  1  0.085676  0  0.107775  0.16279  0  0.980712  0
H  H61  1  0.90003052  0.44797113  0.17449596  1  0.085717  0  0.107766  0.1628  0  0.980737  0
H  H62  1  0.09997263  0.94797221  0.82550406  1  0.085868  0  0.107788  0.162805  0  0.98071  0
H  H63  1  0.40003004  0.05202859  0.32550408  1  0.085704  0  0.107757  0.162785  0  0.980739  0
H  H64  1  0.40002991  0.44797164  0.32550392  1  0.085928  0  0.107775  0.162789  0  0.980708  0
H  H65  1  0.09997147  0.55202760  0.82550383  1  0.085907  0  0.107781  0.162807  0  0.980712  0
H  H66  1  0.90002872  0.05202911  0.17449573  1  0.08569  0  0.107764  0.162783  0  0.980713  0
H  H67  1  0.59997131  0.94797169  0.67449610  1  0.08589  0  0.107775  0.162788  0  0.98072  0
H  H68  1  0.52943896  0.48382102  0.65732269  1  0.11618  0  0.110332  0.173814  0  0.996477  0
H  H69  1  0.97056236  0.51617929  0.15732272  1  0.116186  0  0.110326  0.173839  0  0.996479  0
H  H70  1  0.02943978  0.01617919  0.84267687  1  0.11617  0  0.110338  0.173848  0  0.996479  0
H  H71  1  0.47056224  0.98382107  0.34267692  1  0.11619  0  0.110325  0.17382  0  0.996501  0
H  H72  1  0.47056239  0.51617926  0.34267671  1  0.116188  0  0.11033  0.173814  0  0.996481  0
H  H73  1  0.02943899  0.48382048  0.84267668  1  0.116167  0  0.110328  0.173829  0  0.996482  0
H  H74  1  0.97056286  0.98382110  0.15732292  1  0.116206  0  0.110316  0.173806  0  0.996524  0
H  H75  1  0.52943911  0.01617921  0.65732248  1  0.116176  0  0.110325  0.173814  0  0.996489  0
H  H76  1  0.52628179  0.51952082  0.72276644  1  0.050367  0  0.102282  0.14765  0  0.994617  0
H  H77  1  0.97372016  0.48047888  0.22276650  1  0.050298  0  0.102269  0.147646  0  0.994618  0
H  H78  1  0.02628169  0.98047902  0.77723350  1  0.050361  0  0.102289  0.147695  0  0.994596  0
H  H79  1  0.47371971  0.01952133  0.27723314  1  0.050299  0  0.102275  0.147656  0  0.994599  0
H  H80  1  0.47371956  0.48047842  0.27723296  1  0.050289  0  0.102279  0.147646  0  0.99461  0
H  H81  1  0.02628184  0.51952089  0.77723329  1  0.050369  0  0.102278  0.147663  0  0.994603  0
H  H82  1  0.97372031  0.01952126  0.22276550  1  0.050329  0  0.102302  0.147686  0  0.994592  0
H  H83  1  0.52628229  0.98047947  0.72276626  1  0.050368  0  0.10229  0.147668  0  0.994604  0
H  H84  1  0.49627560  0.74999902  0.49106058  1  0.071862  0  0.104361  0.114338  0  1.017497  0
H  H85  1  0.00372187  0.25000051  0.99105955  1  0.071902  0  0.104375  0.114344  0  1.017451  0
H  H86  1  0.99627819  0.75000132  0.00894024  1  0.071881  0  0.104376  0.11435  0  1.017473  0
H  H87  1  0.50372318  0.25000023  0.50894040  1  0.071914  0  0.104388  0.114393  0  1.017442  0
H  H88  1  0.53705839  0.63873338  0.34590088  1  0.107478  0  0.106966  0.124416  0  1.0069  0
H  H89  1  0.96293966  0.36126873  0.84590050  1  0.107427  0  0.106962  0.124408  0  1.006873  0
H  H90  1  0.03706033  0.86126715  0.15409960  1  0.107303  0  0.106962  0.124406  0  1.006945  0
H  H91  1  0.46294046  0.13873285  0.65409940  1  0.107466  0  0.106978  0.124459  0  1.00688  0
H  H92  1  0.46294039  0.36126690  0.65409931  1  0.10747  0  0.106983  0.124436  0  1.006887  0
H  H93  1  0.03705976  0.63873310  0.15409890  1  0.107503  0  0.106971  0.124405  0  1.006912  0
H  H94  1  0.96294037  0.13873416  0.84589941  1  0.107372  0  0.106912  0.124339  0  1.006965  0
H  H95  1  0.53705831  0.86126692  0.34590118  1  0.107492  0  0.106967  0.124426  0  1.006894  0
H  H96  1  0.29706595  0.44264353  0.01242785  1  0.077038  0  0.107327  0.124655  0  1.014706  0
H  H97  1  0.20293489  0.55735460  0.51242734  1  0.077431  0  0.107348  0.124662  0  1.014693  0
H  H98  1  0.79706465  0.05735520  0.48757300  1  0.077435  0  0.107369  0.124683  0  1.014706  0
H  H99  1  0.70293593  0.94264414  0.98757337  1  0.077064  0  0.107362  0.124703  0  1.014688  0
H  H100  1  0.70293540  0.55735623  0.98757273  1  0.077414  0  0.107354  0.12467  0  1.0147  0
H  H101  1  0.79706453  0.44264465  0.48757245  1  0.077047  0  0.107338  0.124682  0  1.014681  0
H  H102  1  0.20293541  0.94264663  0.51242719  1  0.077455  0  0.107341  0.124687  0  1.014668  0
H  H103  1  0.29706671  0.05735408  0.01242879  1  0.077413  0  0.107339  0.124661  0  1.014662  0
H  H104  1  0.48807127  0.50232495  0.89741735  1  0.093358  0  0.106473  0.124859  0  1.003426  0
H  H105  1  0.01193009  0.49767626  0.39741705  1  0.093369  0  0.106462  0.124835  0  1.0035  0
H  H106  1  0.98806852  0.99767625  0.60258333  1  0.093398  0  0.106456  0.124831  0  1.003526  0
H  H107  1  0.51193024  0.00232413  0.10258265  1  0.093371  0  0.106454  0.124841  0  1.003499  0
H  H108  1  0.51193008  0.49767533  0.10258205  1  0.093382  0  0.106468  0.124847  0  1.003527  0
H  H109  1  0.98806997  0.50232402  0.60258274  1  0.093041  0  0.106459  0.124849  0  1.003489  0
H  H110  1  0.01192961  0.00232506  0.39741765  1  0.093366  0  0.106464  0.124832  0  1.003529  0
H  H111  1  0.48807240  0.99767460  0.89741715  1  0.093319  0  0.106472  0.124822  0  1.003475  0
H  H112  1  0.22652812  0.57409867  0.88230375  1  0.118565  0  0.104216  0.114479  0  1.025215  0
H  H113  1  0.27347132  0.42589947  0.38230230  1  0.11853  0  0.104194  0.114435  0  1.025174  0
H  H114  1  0.72652799  0.92590006  0.61769735  1  0.118523  0  0.104188  0.11444  0  1.025197  0
H  H115  1  0.77347206  0.07410134  0.11769658  1  0.118538  0  0.104185  0.114469  0  1.025155  0
H  H116  1  0.77347195  0.42589903  0.11769683  1  0.11852  0  0.104181  0.114443  0  1.025193  0
H  H117  1  0.72652681  0.57409823  0.61769749  1  0.118526  0  0.104192  0.114422  0  1.025225  0
H  H118  1  0.27347143  0.07410022  0.38230126  1  0.118503  0  0.104216  0.114473  0  1.025196  0
H  H119  1  0.22652800  0.92590153  0.88230322  1  0.118574  0  0.104186  0.114445  0  1.025235  0
H  H120  1  0.20843361  0.61058066  0.67270301  1  0.063372  0  0.105066  0.157133  0  0.986069  0
H  H121  1  0.29156717  0.38941983  0.17270277  1  0.063019  0  0.105093  0.157161  0  0.985989  0
H  H122  1  0.70843345  0.88942014  0.82729612  1  0.063412  0  0.105071  0.157152  0  0.986067  0
H  H123  1  0.79156783  0.11057993  0.32729729  1  0.063031  0  0.105057  0.157116  0  0.986031  0
H  H124  1  0.79156774  0.38942065  0.32729718  1  0.063024  0  0.105073  0.15712  0  0.986072  0
H  H125  1  0.70843353  0.61057994  0.82729623  1  0.063416  0  0.105065  0.157134  0  0.986064  0
H  H126  1  0.29156790  0.11057963  0.17270288  1  0.063027  0  0.105073  0.157143  0  0.986009  0
H  H127  1  0.20843417  0.88942035  0.67270290  1  0.063386  0  0.105079  0.157137  0  0.986047  0
H  H128  1  0.11594985  0.58658603  0.70965803  1  0.093162  0  0.107001  0.163524  0  1.005215  0
H  H129  1  0.38405157  0.41341441  0.20965776  1  0.093084  0  0.106973  0.163477  0  1.005255  0
H  H130  1  0.61595033  0.91341532  0.79034071  1  0.093174  0  0.106995  0.163524  0  1.005212  0
H  H131  1  0.88405160  0.08658583  0.29034229  1  0.093083  0  0.106978  0.163477  0  1.005245  0
H  H132  1  0.88405214  0.41341425  0.29034216  1  0.093078  0  0.106976  0.163459  0  1.00526  0
H  H133  1  0.61595043  0.58658536  0.79034124  1  0.093183  0  0.107001  0.163534  0  1.005204  0
H  H134  1  0.38405167  0.08658548  0.20965750  1  0.093083  0  0.106978  0.163471  0  1.005237  0
H  H135  1  0.11594975  0.91341496  0.70965790  1  0.093163  0  0.106987  0.163494  0  1.005245  0
H  H136  1  0.21461392  0.60881052  0.74267647  1  0.110865  0  0.107167  0.171106  0  0.991049  0
H  H137  1  0.28538685  0.39119039  0.24267623  1  0.110814  0  0.10716  0.171089  0  0.991034  0
H  H138  1  0.71461506  0.89119028  0.75732305  1  0.110794  0  0.107143  0.1711  0  0.991103  0
H  H139  1  0.78538688  0.10880938  0.25732383  1  0.110811  0  0.107175  0.171133  0  0.991074  0
H  H140  1  0.78538679  0.39119079  0.25732371  1  0.110812  0  0.107141  0.17105  0  0.991062  0
H  H141  1  0.71461515  0.60880989  0.75732316  1  0.110836  0  0.107155  0.171114  0  0.991084  0
H  H142  1  0.28538694  0.10880897  0.24267635  1  0.110814  0  0.107142  0.171061  0  0.991052  0
H  H143  1  0.21461447  0.89119039  0.74267636  1  0.11086  0  0.107163  0.171096  0  0.991065  0
C  C144  1  0.32076859  0.65925434  0.57129713  1  -0.064557  0  -0.22997  -0.477138  0  3.922365  0
C  C145  1  0.17923158  0.34074526  0.07129655  1  -0.06453  0  -0.229942  -0.477077  0  3.92239  0
C  C146  1  0.82077165  0.84074538  0.92870396  1  -0.062971  0  -0.230007  -0.477194  0  3.922451  0
C  C147  1  0.67923153  0.15925455  0.42870353  1  -0.064564  0  -0.229978  -0.47717  0  3.922282  0
C  C148  1  0.67923147  0.34074543  0.42870345  1  -0.064576  0  -0.22996  -0.47714  0  3.922331  0
C  C149  1  0.82077042  0.65925502  0.92870285  1  -0.063139  0  -0.229977  -0.477172  0  3.922319  0
C  C150  1  0.17923164  0.15925490  0.07129623  1  -0.064563  0  -0.229953  -0.477103  0  3.922342  0
C  C151  1  0.32076982  0.84074522  0.57129745  1  -0.064587  0  -0.229936  -0.477108  0  3.922351  0
C  C152  1  0.37641333  0.63745072  0.61579492  1  0.99339  0  0.232726  0.411929  0  3.987287  0
C  C153  1  0.12358812  0.36254882  0.11579433  1  0.993324  0  0.232714  0.411917  0  3.987442  0
C  C154  1  0.87641445  0.86254898  0.88420735  1  0.993318  0  0.232638  0.411813  0  3.987269  0
C  C155  1  0.62358810  0.13745102  0.38420575  1  0.993336  0  0.232731  0.411914  0  3.98742  0
C  C156  1  0.62358802  0.36254956  0.38420566  1  0.993377  0  0.232763  0.411957  0  3.987323  0
C  C157  1  0.87641387  0.63745198  0.88420547  1  0.99335  0  0.23273  0.411903  0  3.98723  0
C  C158  1  0.12358755  0.13745182  0.11579402  1  0.993331  0  0.232743  0.411915  0  3.987386  0
C  C159  1  0.37641390  0.86254875  0.61579483  1  0.993362  0  0.232702  0.411896  0  3.987304  0
C  C160  1  0.46880563  0.58169978  0.66311954  1  1.017684  0  0.237467  0.42284  0  3.962543  0
C  C161  1  0.03119516  0.41830021  0.16311930  1  1.017698  0  0.237508  0.422913  0  3.962554  0
C  C162  1  0.96880672  0.91830040  0.83688114  1  1.017673  0  0.237484  0.422903  0  3.96243  0
C  C163  1  0.53119454  0.08169966  0.33688039  1  1.017677  0  0.237513  0.422913  0  3.962529  0
C  C164  1  0.53119444  0.41830050  0.33688025  1  1.017694  0  0.237462  0.422771  0  3.962552  0
C  C165  1  0.96880619  0.58169955  0.83687970  1  1.01768  0  0.237528  0.423046  0  3.962415  0
C  C166  1  0.03119527  0.08169988  0.16311944  1  1.017698  0  0.237504  0.422888  0  3.962601  0
C  C167  1  0.46880616  0.91830062  0.66312019  1  1.017697  0  0.237512  0.422935  0  3.962454  0
C  C168  1  0.53486298  0.53127514  0.68072135  1  -0.054985  0  -0.225442  -0.473446  0  3.906549  0
C  C169  1  0.96513898  0.46872462  0.18072142  1  -0.054951  0  -0.225425  -0.473528  0  3.906667  0
C  C170  1  0.03486481  0.96872469  0.81927820  1  -0.0552  0  -0.225441  -0.473537  0  3.906459  0
C  C171  1  0.46513851  0.03127611  0.31927862  1  -0.054944  0  -0.225445  -0.473529  0  3.906702  0
C  C172  1  0.46513837  0.46872462  0.31927844  1  -0.055174  0  -0.225394  -0.473387  0  3.906571  0
C  C173  1  0.03486302  0.53127567  0.81927877  1  -0.055238  0  -0.225467  -0.473569  0  3.9066  0
C  C174  1  0.96513847  0.03127559  0.18072081  1  -0.054968  0  -0.225442  -0.473499  0  3.906662  0
C  C175  1  0.53486349  0.96872469  0.68072117  1  -0.055242  0  -0.225455  -0.473491  0  3.906572  0
C  C176  1  0.50813316  0.61958926  0.45058187  1  1.573835  0  0.214164  0.590759  0  4.171159  0
C  C177  1  0.99186549  0.38041115  0.95058305  1  1.573806  0  0.2143  0.591088  0  4.170901  0
C  C178  1  0.00813835  0.88041128  0.04941624  1  1.57369  0  0.214317  0.591039  0  4.170625  0
C  C179  1  0.49186312  0.11958680  0.54941921  1  1.573833  0  0.214363  0.591065  0  4.170619  0
C  C180  1  0.49186432  0.38040999  0.54941674  1  1.573831  0  0.214215  0.590719  0  4.171158  0
C  C181  1  0.00813328  0.61959171  0.04941398  1  1.573747  0  0.214275  0.590909  0  4.170649  0
C  C182  1  0.99186493  0.11958849  0.95058158  1  1.573887  0  0.214325  0.591068  0  4.170578  0
C  C183  1  0.50813244  0.88040935  0.45058334  1  1.5738  0  0.21428  0.590943  0  4.170825  0
C  C184  1  0.51467420  0.68724787  0.42153742  1  -0.037972  0  -0.018692  -0.015751  0  3.982434  0
C  C185  1  0.98532317  0.31275259  0.92153669  1  -0.037924  0  -0.018701  -0.015907  0  3.982462  0
C  C186  1  0.01467427  0.81275370  0.07846266  1  -0.038331  0  -0.018725  -0.015875  0  3.982407  0
C  C187  1  0.48532654  0.18724640  0.57846242  1  -0.038341  0  -0.01871  -0.015784  0  3.982304  0
C  C188  1  0.48532650  0.31275138  0.57846197  1  -0.038096  0  -0.018692  -0.015784  0  3.982412  0
C  C189  1  0.01467496  0.68724821  0.07846192  1  -0.038461  0  -0.018691  -0.015759  0  3.982271  0
C  C190  1  0.98532386  0.18724658  0.92153516  1  -0.03795  0  -0.018765  -0.015984  0  3.982625  0
C  C191  1  0.51467481  0.81275233  0.42153777  1  -0.037945  0  -0.01869  -0.015797  0  3.982325  0
C  C192  1  0.50680159  0.74999905  0.44858612  1  0.065107  0  -0.082889  -0.122548  0  3.937802  0
C  C193  1  0.99319707  0.24999930  0.94858543  1  0.06517  0  -0.082849  -0.122409  0  3.937659  0
C  C194  1  0.00680428  0.75000253  0.05141396  1  0.066028  0  -0.08288  -0.122512  0  3.937679  0
C  C195  1  0.49319589  0.24999865  0.55141525  1  0.065652  0  -0.082889  -0.122573  0  3.937808  0
C  C196  1  0.52960192  0.68745451  0.36695576  1  -0.054021  0  -0.090257  -0.202362  0  3.938896  0
C  C197  1  0.97039612  0.31254654  0.86695582  1  -0.053928  0  -0.090262  -0.202467  0  3.938999  0
C  C198  1  0.02960391  0.81254551  0.13304432  1  -0.053898  0  -0.090259  -0.202448  0  3.939036  0
C  C199  1  0.47039689  0.18745504  0.63304487  1  -0.054014  0  -0.0903  -0.202521  0  3.938967  0
C  C200  1  0.47039621  0.31254525  0.63304482  1  -0.054011  0  -0.090285  -0.202395  0  3.938895  0
C  C201  1  0.02960266  0.68745581  0.13304358  1  -0.054001  0  -0.090253  -0.202462  0  3.9391  0
C  C202  1  0.97039616  0.18745684  0.86695469  1  -0.053972  0  -0.09023  -0.202408  0  3.939346  0
C  C203  1  0.52960253  0.81254473  0.36695611  1  -0.054006  0  -0.090253  -0.202367  0  3.938908  0
C  C204  1  0.53607081  0.75000015  0.33988808  1  0.481242  0  0.066686  0.29355  0  4.089462  0
C  C205  1  0.96392659  0.25000197  0.83988661  1  0.481199  0  0.066693  0.293652  0  4.088935  0
C  C206  1  0.03607154  0.74999883  0.16011200  1  0.481305  0  0.066686  0.293609  0  4.089051  0
C  C207  1  0.46392925  0.25000013  0.66011172  1  0.481215  0  0.066686  0.293636  0  4.089438  0
C  C208  1  0.16042568  0.50984385  0.96863987  1  1.591938  0  0.216401  0.591434  0  4.171363  0
C  C209  1  0.33957630  0.49015881  0.46863993  1  1.591992  0  0.216531  0.591613  0  4.17117  0
C  C210  1  0.66041910  0.99015387  0.53136243  1  1.592008  0  0.216404  0.591464  0  4.171484  0
C  C211  1  0.83958097  0.00984403  0.03135894  1  1.591789  0  0.216316  0.59136  0  4.17149  0
C  C212  1  0.83958018  0.49015385  0.03136308  1  1.592164  0  0.216396  0.591421  0  4.171452  0
C  C213  1  0.66042312  0.50984302  0.53136223  1  1.592135  0  0.216501  0.591521  0  4.171421  0
C  C214  1  0.33957516  0.00984331  0.46863973  1  1.591879  0  0.216479  0.591538  0  4.171297  0
C  C215  1  0.16042489  0.99015728  0.96864204  1  1.591717  0  0.216426  0.591512  0  4.171212  0
C  C216  1  0.25181111  0.50786405  0.94902421  1  -0.002944  0  -0.016935  -0.01082  0  3.997719  0
C  C217  1  0.24818959  0.49213399  0.44902310  1  -0.002562  0  -0.016972  -0.01087  0  3.997744  0
C  C218  1  0.75180775  0.99213415  0.55097846  1  -0.002583  0  -0.017046  -0.010919  0  3.997865  0
C  C219  1  0.74819361  0.00786528  0.05097617  1  -0.003013  0  -0.016992  -0.010768  0  3.997639  0
C  C220  1  0.74819217  0.49213365  0.05097795  1  -0.002551  0  -0.017058  -0.010959  0  3.997818  0
C  C221  1  0.75180854  0.50786319  0.55097827  1  -0.002948  0  -0.017003  -0.01086  0  3.997805  0
C  C222  1  0.24818910  0.00786613  0.44902291  1  -0.002561  0  -0.017034  -0.010951  0  3.99783  0
C  C223  1  0.25181032  0.99213552  0.94902559  1  -0.002875  0  -0.016905  -0.010875  0  3.997802  0
C  C224  1  0.31410578  0.46988893  0.97634722  1  -0.027431  0  -0.093583  -0.202667  0  3.921472  0
C  C225  1  0.18589620  0.53010907  0.47634727  1  -0.028165  0  -0.093637  -0.202722  0  3.921478  0
C  C226  1  0.81410143  0.03011064  0.52365388  1  -0.028113  0  -0.093591  -0.20263  0  3.92152  0
C  C227  1  0.68589736  0.96988882  0.02365397  1  -0.027391  0  -0.093608  -0.202732  0  3.921567  0
C  C228  1  0.68589815  0.53011032  0.02365336  1  -0.028107  0  -0.093552  -0.202591  0  3.921401  0
C  C229  1  0.81410322  0.46988760  0.52365371  1  -0.027402  0  -0.093576  -0.202682  0  3.921484  0
C  C230  1  0.18589606  0.96989119  0.47634670  1  -0.028161  0  -0.093639  -0.202714  0  3.921395  0
C  C231  1  0.31410721  0.03010940  0.97634779  1  -0.027797  0  -0.093616  -0.202596  0  3.921481  0
C  C232  1  0.39870150  0.46681877  0.95757373  1  0.512123  0  0.072055  0.296283  0  4.132516  0
C  C233  1  0.10129856  0.53317977  0.45757419  1  0.512152  0  0.072128  0.296365  0  4.132401  0
C  C234  1  0.89870036  0.03318025  0.54242539  1  0.512148  0  0.072054  0.296193  0  4.132494  0
C  C235  1  0.60130036  0.96681918  0.04242667  1  0.51217  0  0.072052  0.296221  0  4.13257  0
C  C236  1  0.60129985  0.53318048  0.04242567  1  0.51219  0  0.072057  0.296239  0  4.132459  0
C  C237  1  0.89869957  0.46681793  0.54242679  1  0.512167  0  0.072052  0.296265  0  4.132556  0
C  C238  1  0.10129842  0.96682055  0.45757401  1  0.512146  0  0.072132  0.296323  0  4.132446  0
C  C239  1  0.39870228  0.03318058  0.95757391  1  0.512117  0  0.072083  0.296267  0  4.132468  0
C  C240  1  0.42190634  0.50293134  0.91197093  1  -0.083319  0  -0.100358  -0.237018  0  3.962971  0
C  C241  1  0.07809308  0.49706778  0.41197182  1  -0.083366  0  -0.100384  -0.236996  0  3.962936  0
C  C242  1  0.92190553  0.99706834  0.58802778  1  -0.083297  0  -0.10033  -0.236879  0  3.962882  0
C  C243  1  0.57809324  0.00293103  0.08802866  1  -0.083359  0  -0.100349  -0.237024  0  3.962913  0
C  C244  1  0.57809372  0.49706842  0.08802807  1  -0.083342  0  -0.100373  -0.236993  0  3.962959  0
C  C245  1  0.92190569  0.50293043  0.58802916  1  -0.083006  0  -0.100333  -0.237002  0  3.96289  0
C  C246  1  0.07809324  0.00293246  0.41197162  1  -0.083355  0  -0.100361  -0.236964  0  3.963023  0
C  C247  1  0.42190812  0.99706977  0.91197034  1  -0.083316  0  -0.100361  -0.236948  0  3.962796  0
C  C248  1  0.35949185  0.54168226  0.88502165  1  -0.014157  0  -0.020851  -0.007074  0  4.011206  0
C  C249  1  0.14050758  0.45831742  0.38502059  1  -0.014077  0  -0.020809  -0.007124  0  4.011102  0
C  C250  1  0.85949171  0.95831693  0.61497904  1  -0.014066  0  -0.020817  -0.007105  0  4.011142  0
C  C251  1  0.64050899  0.04168344  0.11497870  1  -0.014114  0  -0.02081  -0.006959  0  4.011012  0
C  C252  1  0.64050821  0.45831647  0.11497853  1  -0.014119  0  -0.020848  -0.007129  0  4.011195  0
C  C253  1  0.85949120  0.54168132  0.61498000  1  -0.013565  0  -0.020858  -0.007128  0  4.01113  0
C  C254  1  0.14050771  0.04168336  0.38502036  1  -0.013566  0  -0.020884  -0.007146  0  4.011225  0
C  C255  1  0.35949172  0.95831736  0.88502148  1  -0.01405  0  -0.02083  -0.007089  0  4.011051  0
C  C256  1  0.27449932  0.54366310  0.90321226  1  0.008844  0  -0.086739  -0.132139  0  3.947683  0
C  C257  1  0.22550204  0.45633552  0.40321197  1  0.008809  0  -0.086708  -0.132031  0  3.947546  0
C  C258  1  0.77449789  0.95633613  0.59678884  1  0.008731  0  -0.086687  -0.132064  0  3.947692  0
C  C259  1  0.72550216  0.04366427  0.09678691  1  0.008882  0  -0.086707  -0.132209  0  3.947542  0
C  C260  1  0.72550139  0.45633460  0.09678833  1  0.008792  0  -0.086677  -0.13204  0  3.947624  0
C  C261  1  0.77449867  0.54366218  0.59678940  1  0.008376  0  -0.086699  -0.132048  0  3.947662  0
C  C262  1  0.22550153  0.04366467  0.40321135  1  0.008289  0  -0.086666  -0.132019  0  3.947511  0
C  C263  1  0.27449854  0.95633757  0.90321209  1  0.008764  0  -0.086754  -0.132156  0  3.947696  0
C  C264  1  0.38377313  0.58394806  0.83818244  1  1.501735  0  0.194056  0.566726  0  4.190076  0
C  C265  1  0.11622632  0.41605169  0.33818141  1  1.501781  0  0.194093  0.566863  0  4.190162  0
C  C266  1  0.88377235  0.91605164  0.66181746  1  1.501755  0  0.194076  0.566825  0  4.190159  0
C  C267  1  0.61622640  0.08394918  0.16181630  1  1.501696  0  0.194035  0.566724  0  4.190274  0
C  C268  1  0.61622629  0.41605068  0.16181656  1  1.501697  0  0.194127  0.566861  0  4.190224  0
C  C269  1  0.88377439  0.58394756  0.66181759  1  1.501792  0  0.194091  0.566858  0  4.189985  0
C  C270  1  0.11622578  0.08395019  0.33818234  1  1.501794  0  0.194115  0.566836  0  4.190109  0
C  C271  1  0.38377367  0.91605110  0.83818270  1  1.501727  0  0.194183  0.566908  0  4.190123  0
C  C272  1  0.17216275  0.62075699  0.70907118  1  -0.068919  0  -0.228279  -0.48032  0  3.908023  0
C  C273  1  0.32783932  0.37924345  0.20907134  1  -0.068389  0  -0.228291  -0.48029  0  3.907996  0
C  C274  1  0.67216324  0.87924331  0.79092756  1  -0.068935  0  -0.228283  -0.480366  0  3.908102  0
C  C275  1  0.82783933  0.12075630  0.29092832  1  -0.068399  0  -0.228277  -0.480279  0  3.908056  0
C  C276  1  0.82783925  0.37924381  0.29092861  1  -0.068393  0  -0.228262  -0.480172  0  3.90804  0
C  C277  1  0.67216332  0.62075683  0.79092806  1  -0.068978  0  -0.22828  -0.480362  0  3.908075  0
C  C278  1  0.32783940  0.12075697  0.20907145  1  -0.068386  0  -0.228245  -0.480208  0  3.907997  0
C  C279  1  0.17216266  0.87924399  0.70907108  1  -0.068909  0  -0.228296  -0.480302  0  3.908073  0
C  C280  1  0.14385657  0.69389837  0.71124997  1  0.998531  0  0.230683  0.412997  0  3.986449  0
C  C281  1  0.35614162  0.30610207  0.21124979  1  0.998497  0  0.230705  0.412973  0  3.986455  0
C  C282  1  0.64385647  0.80610297  0.78874956  1  0.998588  0  0.230673  0.412971  0  3.986433  0
C  C283  1  0.85614159  0.19389767  0.28874987  1  0.9985  0  0.230713  0.412974  0  3.986429  0
C  C284  1  0.85614156  0.30610243  0.28875022  1  0.998524  0  0.230699  0.412924  0  3.986488  0
C  C285  1  0.64385651  0.69389718  0.78874961  1  0.998592  0  0.230694  0.413006  0  3.986363  0
C  C286  1  0.35614230  0.19389783  0.21124983  1  0.998444  0  0.230699  0.41291  0  3.986509  0
C  C287  1  0.14385718  0.80610261  0.71124992  1  0.998538  0  0.230653  0.412928  0  3.986538  0
N  N288  1  0.37513911  0.66558878  0.66393010  1  -0.823548  0  -0.276536  -0.28566  0  3.547655  0
N  N289  1  0.12486232  0.33441069  0.16392914  1  -0.823765  0  -0.276625  -0.285811  0  3.547788  0
N  N290  1  0.87514026  0.83441040  0.83607098  1  -0.823471  0  -0.276578  -0.285693  0  3.54758  0
N  N291  1  0.62486229  0.16558914  0.33607055  1  -0.823751  0  -0.276615  -0.285779  0  3.54777  0
N  N292  1  0.62486224  0.33441098  0.33607048  1  -0.823739  0  -0.276624  -0.285809  0  3.547719  0
N  N293  1  0.87513967  0.66558959  0.83606987  1  -0.82353  0  -0.276559  -0.285628  0  3.547633  0
N  N294  1  0.12486237  0.16558936  0.16392960  1  -0.823759  0  -0.276608  -0.285757  0  3.547699  0
N  N295  1  0.37514035  0.83441062  0.66393043  1  -0.823522  0  -0.276582  -0.28571  0  3.547703  0
N  N296  1  0.43409625  0.63011462  0.69409847  1  -0.820953  0  -0.269122  -0.278291  0  3.51401  0
N  N297  1  0.06590517  0.36988481  0.19409788  1  -0.82085  0  -0.269094  -0.278218  0  3.513977  0
N  N298  1  0.93409675  0.86988506  0.80590221  1  -0.820874  0  -0.269139  -0.278338  0  3.513936  0
N  N299  1  0.56590517  0.13011504  0.30590181  1  -0.820853  0  -0.269106  -0.278269  0  3.514071  0
N  N300  1  0.56590510  0.36988463  0.30590172  1  -0.820853  0  -0.269119  -0.278237  0  3.514078  0
N  N301  1  0.93409682  0.63011495  0.80590152  1  -0.82094  0  -0.269163  -0.27844  0  3.514034  0
N  N302  1  0.06590525  0.13011522  0.19409798  1  -0.820889  0  -0.2691  -0.278225  0  3.513994  0
N  N303  1  0.43409682  0.86988472  0.69409877  1  -0.820974  0  -0.269131  -0.278349  0  3.514026  0
N  N304  1  0.43435202  0.58516356  0.61396933  1  -1.211988  0  -0.340202  -0.397149  0  3.34674  0
N  N305  1  0.06564943  0.41483702  0.11396870  1  -1.212124  0  -0.340144  -0.397055  0  3.346745  0
N  N306  1  0.93435504  0.91483664  0.88603096  1  -1.212048  0  -0.340114  -0.39703  0  3.346764  0
N  N307  1  0.56564879  0.08516336  0.38603099  1  -1.211959  0  -0.340148  -0.397045  0  3.346693  0
N  N308  1  0.56564869  0.41483724  0.38603086  1  -1.21197  0  -0.340166  -0.397046  0  3.346755  0
N  N309  1  0.93435321  0.58516430  0.88603110  1  -1.211941  0  -0.340194  -0.397173  0  3.346675  0
N  N310  1  0.06564889  0.08516365  0.11396883  1  -1.211968  0  -0.340193  -0.397134  0  3.346877  0
N  N311  1  0.43435320  0.91483589  0.61396919  1  -1.211959  0  -0.340169  -0.397099  0  3.346727  0
N  N312  1  0.19598984  0.75000049  0.70462549  1  -1.273869  0  -0.368586  -0.449689  0  3.474806  0
N  N313  1  0.30401094  0.24999996  0.20462576  1  -1.273888  0  -0.36861  -0.449639  0  3.474861  0
N  N314  1  0.69599170  0.75000032  0.79537285  1  -1.273817  0  -0.368583  -0.449654  0  3.474623  0
N  N315  1  0.80401087  0.25000031  0.29537390  1  -1.273878  0  -0.368601  -0.449633  0  3.474845  0
N  N316  1  0.06367932  0.71444993  0.72115625  1  -0.873605  0  -0.255752  -0.256647  0  3.465149  0
N  N317  1  0.43632145  0.28555050  0.22115647  1  -0.873649  0  -0.255796  -0.256712  0  3.465023  0
N  N318  1  0.56367988  0.78555042  0.77884289  1  -0.873689  0  -0.255779  -0.256679  0  3.465115  0
N  N319  1  0.93632141  0.21444921  0.27884317  1  -0.873651  0  -0.255754  -0.256654  0  3.464887  0
N  N320  1  0.93632139  0.28555087  0.27884314  1  -0.702266  0  -0.255733  -0.256612  0  3.464888  0
N  N321  1  0.56367990  0.71444927  0.77884292  1  -0.702307  0  -0.255694  -0.256569  0  3.465001  0
N  N322  1  0.43632147  0.21444935  0.22115650  1  -0.702202  0  -0.255691  -0.256511  0  3.464961  0
N  N323  1  0.06367930  0.78555108  0.72115622  1  -0.70232  0  -0.25572  -0.256584  0  3.465149  0
O  O324  1  0.48638610  0.62158711  0.49900752  1  -1.17041  0  -0.315604  -0.548286  0  2.319012  0
O  O325  1  0.01361201  0.37841655  0.99900482  1  -1.170398  0  -0.315706  -0.548403  0  2.319291  0
O  O326  1  0.98639313  0.87841737  0.00099369  1  -1.170374  0  -0.315699  -0.54839  0  2.319212  0
O  O327  1  0.51360953  0.12158367  0.50099395  1  -1.170276  0  -0.315764  -0.548451  0  2.318912  0
O  O328  1  0.51361010  0.37841421  0.50099227  1  -1.170418  0  -0.315641  -0.54823  0  2.319171  0
O  O329  1  0.98638677  0.62158787  0.00099379  1  -1.170573  0  -0.31563  -0.548311  0  2.319311  0
O  O330  1  0.01361080  0.12158239  0.99900216  1  -1.170284  0  -0.315703  -0.548362  0  2.319215  0
O  O331  1  0.48638666  0.87841455  0.49900623  1  -1.170431  0  -0.315673  -0.548357  0  2.319133  0
O  O332  1  0.52488651  0.56509351  0.42424077  1  -1.171208  0  -0.317408  -0.55676  0  2.343511  0
O  O333  1  0.97510893  0.43490746  0.92423836  1  -1.17124  0  -0.317416  -0.556881  0  2.343233  0
O  O334  1  0.02488973  0.93491012  0.07576287  1  -1.17127  0  -0.317449  -0.556901  0  2.343035  0
O  O335  1  0.47511044  0.06509050  0.57576233  1  -1.171461  0  -0.317436  -0.556876  0  2.3433  0
O  O336  1  0.47511162  0.43490728  0.57576100  1  -1.171182  0  -0.317406  -0.556746  0  2.343359  0
O  O337  1  0.02488856  0.56508973  0.07575986  1  -1.171078  0  -0.3175  -0.556922  0  2.342855  0
O  O338  1  0.97511098  0.06509016  0.92423495  1  -1.171401  0  -0.317466  -0.556929  0  2.343007  0
O  O339  1  0.52488704  0.93490668  0.42423983  1  -1.171155  0  -0.317474  -0.556857  0  2.343174  0
O  O340  1  0.10500255  0.53849281  0.93892928  1  -1.165098  0  -0.311827  -0.538375  0  2.326457  0
O  O341  1  0.39499816  0.46150576  0.43892779  1  -1.165148  0  -0.311909  -0.538546  0  2.326389  0
O  O342  1  0.60499855  0.96150545  0.56107223  1  -1.165533  0  -0.311692  -0.538362  0  2.326872  0
O  O343  1  0.89500152  0.03849396  0.06107108  1  -1.165261  0  -0.311708  -0.538344  0  2.326715  0
O  O344  1  0.89500009  0.46150386  0.06107446  1  -1.165449  0  -0.311746  -0.538383  0  2.32676  0
O  O345  1  0.60500126  0.53849659  0.56107477  1  -1.165335  0  -0.311795  -0.538419  0  2.326505  0
O  O346  1  0.39499636  0.03849586  0.43892875  1  -1.165145  0  -0.311854  -0.538491  0  2.326421  0
O  O347  1  0.10500434  0.96150477  0.93893069  1  -1.16507  0  -0.311807  -0.538399  0  2.32642  0
O  O348  1  0.14564372  0.48206437  0.01331500  1  -1.178891  0  -0.31509  -0.554249  0  2.350756  0
O  O349  1  0.35435841  0.51793479  0.51331411  1  -1.178898  0  -0.315141  -0.554243  0  2.350747  0
O  O350  1  0.64563987  0.01793442  0.48668705  1  -1.17877  0  -0.315196  -0.554265  0  2.350654  0
O  O351  1  0.85436071  0.98206440  0.98668421  1  -1.17866  0  -0.315143  -0.554218  0  2.350785  0
O  O352  1  0.85436085  0.51793385  0.98668835  1  -1.178888  0  -0.31515  -0.554209  0  2.350675  0
O  O353  1  0.64564101  0.48206601  0.48668766  1  -1.178967  0  -0.31519  -0.554282  0  2.350915  0
O  O354  1  0.35435955  0.98206431  0.51331471  1  -1.178786  0  -0.315144  -0.554243  0  2.350804  0
O  O355  1  0.14564129  0.01793692  0.01331716  1  -1.178702  0  -0.315131  -0.554261  0  2.350645  0
O  O356  1  0.32814513  0.61988914  0.81397829  1  -1.178553  0  -0.334411  -0.565989  0  2.130308  0
O  O357  1  0.17185367  0.38011064  0.31397807  1  -1.178568  0  -0.334489  -0.566081  0  2.130245  0
O  O358  1  0.82814373  0.88011109  0.68602162  1  -1.178589  0  -0.334436  -0.566056  0  2.130286  0
O  O359  1  0.67185565  0.11989021  0.18602082  1  -1.178563  0  -0.334434  -0.56601  0  2.13027  0
O  O360  1  0.67185493  0.38010959  0.18602071  1  -1.178563  0  -0.334427  -0.566036  0  2.130255  0
O  O361  1  0.82814639  0.61988913  0.68602133  1  -1.178704  0  -0.33446  -0.566038  0  2.130168  0
O  O362  1  0.17185376  0.11989177  0.31397778  1  -1.1786  0  -0.334455  -0.566044  0  2.130191  0
O  O363  1  0.32814570  0.88011162  0.81397858  1  -1.178544  0  -0.33452  -0.566117  0  2.130327  0
O  O364  1  0.46417970  0.58499864  0.82391536  1  -1.161433  0  -0.342318  -0.563697  0  2.23273  0
O  O365  1  0.03582104  0.41500268  0.32391434  1  -1.1615  0  -0.342289  -0.563736  0  2.232843  0
O  O366  1  0.96417828  0.91500309  0.67608532  1  -1.16145  0  -0.342299  -0.563741  0  2.232782  0
O  O367  1  0.53582175  0.08499822  0.17608377  1  -1.16139  0  -0.342268  -0.563686  0  2.232897  0
O  O368  1  0.53582165  0.41500113  0.17608403  1  -1.161397  0  -0.342326  -0.563702  0  2.232854  0
O  O369  1  0.96417967  0.58499812  0.67608505  1  -1.161462  0  -0.34228  -0.563719  0  2.232762  0
O  O370  1  0.03582050  0.08499926  0.32391527  1  -1.161493  0  -0.342322  -0.563742  0  2.232748  0
O  O371  1  0.46417960  0.91499999  0.82391602  1  -1.161423  0  -0.342317  -0.563711  0  2.232778  0
O  O372  1  0.38133033  0.74999989  0.76493221  1  -1.233243  0  -0.557487  -0.781812  0  2.300443  0
O  O373  1  0.11866978  0.25000047  0.26493170  1  -1.233178  0  -0.557476  -0.781797  0  2.300521  0
O  O374  1  0.88133028  0.75000032  0.73506848  1  -1.233246  0  -0.557492  -0.781851  0  2.300455  0
O  O375  1  0.61866973  0.24999988  0.23506798  1  -1.233241  0  -0.557477  -0.781789  0  2.300476  0
O  O376  1  0.55477539  0.75000070  0.28594573  1  -1.151549  0  -0.393907  -0.510749  0  2.199132  0
O  O377  1  0.94522396  0.25000253  0.78594427  1  -1.151633  0  -0.393928  -0.509079  0  2.200389  0
O  O378  1  0.05477610  0.74999982  0.21405395  1  -1.151578  0  -0.39394  -0.509078  0  2.200518  0
O  O379  1  0.44522467  0.24999958  0.71405406  1  -1.151563  0  -0.393938  -0.510777  0  2.19909  0
O  O380  1  0.45606299  0.42788139  0.98620931  1  -1.141094  0  -0.363404  -0.4679  0  2.248137  0
O  O381  1  0.04393834  0.57211867  0.48620935  1  -1.141095  0  -0.363431  -0.467939  0  2.24818  0
O  O382  1  0.95606119  0.07211968  0.51379059  1  -1.141087  0  -0.363407  -0.46785  0  2.248229  0
O  O383  1  0.54393953  0.92788031  0.01379152  1  -1.141077  0  -0.363388  -0.467817  0  2.248177  0
O  O384  1  0.54393900  0.57211941  0.01379087  1  -1.141084  0  -0.363418  -0.467884  0  2.248241  0
O  O385  1  0.95606172  0.42788058  0.51379123  1  -1.141087  0  -0.363424  -0.467891  0  2.248195  0
O  O386  1  0.04393823  0.92788215  0.48620920  1  -1.141067  0  -0.363411  -0.46792  0  2.248206  0
O  O387  1  0.45606439  0.07211894  0.98620946  1  -1.141113  0  -0.363411  -0.467895  0  2.24819  0
