# generated using pymatgen
data_Ni2H31C34N6O13
_symmetry_space_group_name_H-M   'P 1'
_cell_length_a   13.20514638
_cell_length_b   13.20109367
_cell_length_c   26.18221199
_cell_angle_alpha   95.79474638
_cell_angle_beta   102.08728364
_cell_angle_gamma   112.61581607
_symmetry_Int_Tables_number   1
_chemical_formula_structural   Ni2H31C34N6O13
_chemical_formula_sum   'Ni8 H124 C136 N24 O52'
_cell_volume   4035.63817964
_cell_formula_units_Z   4
loop_
 _symmetry_equiv_pos_site_id
 _symmetry_equiv_pos_as_xyz
  1  'x, y, z'
loop_
 _atom_site_type_symbol
 _atom_site_label
 _atom_site_symmetry_multiplicity
 _atom_site_fract_x
 _atom_site_fract_y
 _atom_site_fract_z
 _atom_site_occupancy
 _atom_site_pbe_bader_charge
 _atom_site_pbe_bader_spin_density
 _atom_site_pbe_cm5_charge
 _atom_site_pbe_ddec_charge
 _atom_site_pbe_ddec_spin_density
 _atom_site_pbe_ddec_sum_bond_order
 _atom_site_pbe_magmom
Ni  Ni0  1  0.42081980  0.67578958  0.75345091  1  1.195249  1.592858  0.627349  0.824518  1.792577  2.370613  1.581
Ni  Ni1  1  0.92246553  0.16733505  0.74652373  1  1.192901  1.592741  0.628337  0.826953  1.791062  2.368391  1.581
Ni  Ni2  1  0.57918012  0.32421126  0.24654981  1  1.195224  1.592857  0.62735  0.824574  1.792578  2.370598  1.581
Ni  Ni3  1  0.07753589  0.83266588  0.25347598  1  1.192936  1.59274  0.628332  0.826927  1.791064  2.368436  1.581
Ni  Ni4  1  0.76196161  0.66278560  0.45954061  1  1.174804  1.580314  0.620919  0.848528  1.774915  2.356091  1.567
Ni  Ni5  1  0.20328646  0.80245319  0.04038788  1  1.175831  1.580171  0.620625  0.848476  1.774389  2.357748  1.567
Ni  Ni6  1  0.23803740  0.33721204  0.54045920  1  1.17479  1.580315  0.620916  0.848554  1.774916  2.356062  1.567
Ni  Ni7  1  0.79671315  0.19754611  0.95961168  1  1.17581  1.58017  0.620644  0.848513  1.774389  2.357733  1.567
H  H8  1  0.64694966  0.65350493  0.35928484  1  0.610858  0.00068  0.304538  0.384884  0.000678  0.931053  0.0
H  H9  1  0.29422801  0.78764698  0.14074609  1  0.589882  0.000683  0.30431  0.384605  0.00068  0.930872  0.0
H  H10  1  0.35304526  0.34648976  0.64071423  1  0.610918  0.00068  0.304561  0.384925  0.000678  0.930913  0.0
H  H11  1  0.70577144  0.21235371  0.85925332  1  0.589865  0.000683  0.304283  0.384588  0.00068  0.930922  0.0
H  H12  1  0.78126926  0.71035545  0.37207762  1  0.647316  7.8e-05  0.289648  0.37639  0.000223  0.965553  0.0
H  H13  1  0.33843026  0.90918245  0.12793477  1  0.655223  8.6e-05  0.290548  0.376616  0.000223  0.964859  0.0
H  H14  1  0.21872678  0.28964375  0.62792174  1  0.646913  7.8e-05  0.289666  0.376403  0.000223  0.965563  0.0
H  H15  1  0.66156994  0.09081851  0.87206456  1  0.655375  8.6e-05  0.290551  0.376615  0.000223  0.964866  0.0
H  H16  1  0.93672077  0.80273000  0.44377830  1  0.613725  0.000312  0.300945  0.382452  0.00046  0.926938  0.0
H  H17  1  0.35887295  0.99288259  0.05618466  1  0.625405  0.000315  0.300244  0.380825  0.000458  0.928115  0.0
H  H18  1  0.06327817  0.19726832  0.55622143  1  0.613724  0.000312  0.300948  0.382452  0.00046  0.926991  0.0
H  H19  1  0.64112573  0.00711781  0.94381483  1  0.625493  0.000315  0.300257  0.380819  0.000458  0.928169  0.0
H  H20  1  0.95583643  0.78827198  0.50495646  1  0.650491  -0.000369  0.280425  0.37166  -0.000296  0.980093  -0.001
H  H21  1  0.28335044  0.95094944  0.99498313  1  0.650451  -0.000383  0.280535  0.371194  -0.000295  0.980418  -0.001
H  H22  1  0.04416074  0.21172787  0.49504319  1  0.650422  -0.000369  0.280414  0.37163  -0.000296  0.980129  -0.001
H  H23  1  0.71664757  0.04905000  0.00501652  1  0.650459  -0.000383  0.280491  0.371119  -0.000295  0.980498  -0.001
H  H24  1  0.44045251  0.85527588  0.80337881  1  0.645788  -0.000297  0.276999  0.370724  -0.000204  0.977385  0.0
H  H25  1  0.05224540  0.13725910  0.69665041  1  0.635826  -0.000309  0.276963  0.371023  -0.000207  0.976837  0.0
H  H26  1  0.55954628  0.14472479  0.19662245  1  0.645828  -0.000296  0.276959  0.370675  -0.000204  0.977471  0.0
H  H27  1  0.94775586  0.86274321  0.30334914  1  0.635822  -0.000309  0.276972  0.371018  -0.000207  0.976852  0.0
H  H28  1  0.57260941  0.88351616  0.81540936  1  0.639069  0.000408  0.282683  0.376465  0.000586  0.965992  0.001
H  H29  1  0.06843963  0.25738912  0.68457890  1  0.642654  0.000392  0.283623  0.378281  0.000588  0.963759  0.001
H  H30  1  0.42739004  0.11648500  0.18459090  1  0.639071  0.000408  0.282666  0.376463  0.000586  0.966003  0.001
H  H31  1  0.93155897  0.74261198  0.31542051  1  0.642671  0.000392  0.283637  0.378284  0.000588  0.963751  0.001
H  H32  1  0.66987043  0.48489934  0.40702379  1  0.6196  -0.000662  0.298805  0.370839  -0.000737  0.959953  0.0
H  H33  1  0.07792590  0.76286337  0.09289127  1  0.610341  -0.000673  0.299014  0.370912  -0.000741  0.960195  0.0
H  H34  1  0.33012925  0.51509878  0.59297502  1  0.619621  -0.000662  0.298826  0.370859  -0.000737  0.95993  0.0
H  H35  1  0.92207431  0.23713807  0.90710891  1  0.610354  -0.000673  0.299021  0.370925  -0.000741  0.960191  0.0
H  H36  1  0.56046735  0.50578870  0.39361846  1  0.633196  0.000227  0.294397  0.380974  0.000146  0.951061  0.0
H  H37  1  0.11206252  0.66677137  0.10633401  1  0.633964  0.000235  0.295094  0.382129  0.000144  0.949077  0.0
H  H38  1  0.43953159  0.49420963  0.60638126  1  0.632924  0.000228  0.29439  0.380951  0.000146  0.951086  0.0
H  H39  1  0.88793768  0.33322960  0.89366532  1  0.633955  0.000235  0.295087  0.382128  0.000144  0.949079  0.0
H  H40  1  0.31006162  0.44771683  0.73660245  1  0.619446  0.000542  0.325818  0.407845  0.000315  0.858588  0.0
H  H41  1  0.71102774  0.07321195  0.76327398  1  0.599455  0.000523  0.326048  0.40767  0.000319  0.86135  0.0
H  H42  1  0.68993837  0.55228284  0.26339750  1  0.619449  0.000542  0.325815  0.407847  0.000315  0.85856  0.0
H  H43  1  0.28897415  0.92678866  0.23672620  1  0.599439  0.000523  0.326039  0.407669  0.000319  0.861323  0.0
H  H44  1  0.39932852  0.49047001  0.70151107  1  0.629992  -0.000111  0.280313  0.350727  -0.000105  1.012999  0.0
H  H45  1  0.78894167  0.19747847  0.79843862  1  0.633904  -0.000116  0.279781  0.349653  -0.000109  1.014322  0.0
H  H46  1  0.60067147  0.50952966  0.29848888  1  0.630052  -0.000111  0.280313  0.35071  -0.000105  1.013021  0.0
H  H47  1  0.21105900  0.80252218  0.20156117  1  0.633903  -0.000116  0.279754  0.349618  -0.000109  1.014359  0.0
H  H48  1  0.22153616  0.89884940  0.56244692  1  0.081693  9e-05  0.117566  0.126821  5.3e-05  0.97338  0.0
H  H49  1  0.33631876  0.15905382  0.93763377  1  0.110682  8.8e-05  0.117643  0.127158  5.4e-05  0.973734  0.0
H  H50  1  0.77846081  0.10114916  0.43755335  1  0.081705  9e-05  0.117575  0.126849  5.3e-05  0.973345  0.0
H  H51  1  0.66368153  0.84094693  0.06236649  1  0.110671  8.8e-05  0.11762  0.127126  5.4e-05  0.973714  0.0
H  H52  1  0.70194255  0.50697694  0.66073119  1  0.047298  -1.8e-05  0.096392  0.098473  -5.1e-05  1.029922  0.0
H  H53  1  0.84611185  0.54105601  0.83896207  1  0.089336  -1.1e-05  0.096492  0.098218  -5.1e-05  1.029648  0.0
H  H54  1  0.29805951  0.49302276  0.33926998  1  0.047293  -1.8e-05  0.096383  0.098455  -5.1e-05  1.029902  0.0
H  H55  1  0.15388806  0.45894436  0.16103781  1  0.089336  -1.1e-05  0.096477  0.098199  -5.1e-05  1.029679  0.0
H  H56  1  0.51192607  0.89230090  0.41987305  1  0.08473  3.9e-05  0.110516  0.111143  2.3e-05  1.008163  0.0
H  H57  1  0.47251032  0.59231130  0.08005892  1  0.070194  3.9e-05  0.110716  0.111071  2.3e-05  1.008431  0.0
H  H58  1  0.48807447  0.10769777  0.58012744  1  0.084739  3.9e-05  0.110528  0.111153  2.3e-05  1.008129  0.0
H  H59  1  0.52749112  0.40769010  0.91994164  1  0.070144  3.9e-05  0.110688  0.111008  2.3e-05  1.008475  0.0
H  H60  1  0.69785146  0.83035040  0.69559452  1  0.117522  0.000471  0.107372  0.119522  0.00034  1.012786  0.0
H  H61  1  0.13470907  0.50214162  0.80434925  1  0.103437  0.000481  0.107143  0.119078  0.000341  1.013188  0.0
H  H62  1  0.30215099  0.16965091  0.30440372  1  0.117469  0.000471  0.107359  0.119473  0.00034  1.012812  0.0
H  H63  1  0.86529041  0.49786174  0.19564939  1  0.103678  0.000481  0.107141  0.119063  0.000341  1.013202  0.0
H  H64  1  0.27519299  0.61423489  0.44508612  1  0.105397  0.000119  0.111387  0.120735  9.2e-05  1.003436  0.0
H  H65  1  0.16885574  0.33002418  0.05488485  1  0.099868  0.000121  0.111301  0.1209  9.2e-05  1.003897  0.0
H  H66  1  0.72480599  0.38576659  0.55491367  1  0.105354  0.000119  0.111375  0.120723  9.2e-05  1.003427  0.0
H  H67  1  0.83114374  0.66997313  0.94511542  1  0.099846  0.000121  0.111265  0.120839  9.2e-05  1.003768  0.0
H  H68  1  0.20483736  0.90717620  0.46743462  1  0.074531  0.000233  0.111229  0.117739  0.000129  0.992219  0.0
H  H69  1  0.43942589  0.23728362  0.03267114  1  0.075763  0.000235  0.111439  0.118089  0.00013  0.992727  0.0
H  H70  1  0.79516059  0.09282488  0.53256664  1  0.074485  0.000233  0.111235  0.117749  0.000129  0.99221  0.0
H  H71  1  0.56057621  0.76271876  0.96732925  1  0.075561  0.000235  0.111445  0.118091  0.00013  0.992705  0.0
H  H72  1  0.40459189  0.69024228  0.62974460  1  0.131583  0.000932  0.131234  0.093169  0.000364  1.041814  0.0
H  H73  1  0.06039120  0.27479047  0.87026843  1  0.140645  0.00093  0.13128  0.092711  0.000364  1.041494  0.0
H  H74  1  0.59540387  0.30975200  0.37025446  1  0.131606  0.000932  0.131212  0.093145  0.000364  1.041805  0.0
H  H75  1  0.93960766  0.72520902  0.12973207  1  0.140642  0.00093  0.131311  0.092738  0.000364  1.041548  0.0
H  H76  1  0.03118424  0.41701745  0.69830356  1  0.088959  -7e-06  0.10938  0.117284  -0.000151  0.999496  0.0
H  H77  1  0.71857305  0.83293887  0.80178363  1  0.100553  -9e-06  0.10903  0.11716  -0.000151  1.000567  0.0
H  H78  1  0.96881583  0.58298153  0.30169647  1  0.088993  -7e-06  0.109387  0.117296  -0.000151  0.99945  0.0
H  H79  1  0.28142587  0.16706426  0.19821778  1  0.100496  -9e-06  0.109065  0.117153  -0.000151  1.000519  0.0
H  H80  1  0.11470278  0.84349941  0.37842922  1  0.166272  0.000603  0.143582  0.110979  1.5e-05  1.000061  0.0
H  H81  1  0.46487851  0.23630268  0.12161405  1  0.164772  0.0006  0.143043  0.110759  1.4e-05  1.000457  0.0
H  H82  1  0.88529493  0.15649895  0.62157013  1  0.166271  0.000603  0.143605  0.111056  1.5e-05  0.999964  0.0
H  H83  1  0.53512188  0.76369786  0.87838713  1  0.164754  0.0006  0.143045  0.110762  1.4e-05  1.00044  0.0
H  H84  1  0.65929802  0.84279547  0.44198159  1  0.167869  0.000531  0.141665  0.11647  -6.2e-05  0.990499  0.001
H  H85  1  0.40079538  0.71722754  0.05793834  1  0.13642  0.000521  0.14172  0.116134  -6.3e-05  0.990623  0.001
H  H86  1  0.34070234  0.15720410  0.55801790  1  0.167882  0.000531  0.141644  0.116449  -6.2e-05  0.990533  0.001
H  H87  1  0.59920580  0.28277594  0.94206198  1  0.136377  0.000521  0.141756  0.11619  -6.4e-05  0.990695  0.001
H  H88  1  0.66797483  0.65748184  0.56318645  1  0.128561  0.000869  0.122377  0.120727  0.000258  1.016909  0.001
H  H89  1  0.09437403  0.60489323  0.93676443  1  0.125157  0.000869  0.122921  0.122794  0.000259  1.015166  0.001
H  H90  1  0.33202759  0.34251728  0.43681342  1  0.128612  0.000869  0.122377  0.120744  0.000258  1.01687  0.001
H  H91  1  0.90562355  0.39510268  0.06323477  1  0.125178  0.000868  0.122893  0.1228  0.000259  1.015213  0.001
H  H92  1  0.92101690  0.52536217  0.71597079  1  0.069283  0.000128  0.0962  0.097894  2e-05  1.031881  0.0
H  H93  1  0.80922368  0.70513895  0.78399360  1  0.082976  0.000127  0.096606  0.098338  2e-05  1.030279  0.0
H  H94  1  0.07898326  0.47463611  0.28402932  1  0.069294  0.000128  0.096217  0.097947  2e-05  1.031823  0.0
H  H95  1  0.19077115  0.29486124  0.21600706  1  0.082939  0.000127  0.096609  0.098365  2e-05  1.030263  0.0
H  H96  1  0.14717840  0.80737063  0.62683398  1  0.151882  0.000757  0.125591  0.131857  0.000338  1.03517  0.0
H  H97  1  0.18076025  0.02046918  0.87310580  1  0.158315  0.000749  0.125964  0.132059  0.000337  1.034373  0.0
H  H98  1  0.85282390  0.19263179  0.37316911  1  0.151854  0.000757  0.125584  0.131864  0.000338  1.035211  0.0
H  H99  1  0.81923877  0.97952845  0.12689400  1  0.158263  0.000749  0.125958  0.132042  0.000337  1.034434  0.0
H  H100  1  0.56871969  0.96894688  0.59047474  1  0.102879  1.6e-05  0.115803  0.126667  -9e-06  0.977484  0.0
H  H101  1  0.37835980  0.47785271  0.90949814  1  0.100211  1.6e-05  0.116362  0.127299  -9e-06  0.976375  0.0
H  H102  1  0.43128038  0.03105210  0.40952529  1  0.102898  1.6e-05  0.115788  0.126654  -9e-06  0.977416  0.0
H  H103  1  0.62164133  0.52214762  0.09050211  1  0.100195  1.6e-05  0.116358  0.127283  -9e-06  0.976377  0.0
H  H104  1  0.98230883  0.80569547  0.65059385  1  0.130494  8e-06  0.106458  0.114243  -4.5e-05  1.01441  0.0
H  H105  1  0.15505624  0.83171222  0.84941466  1  0.139849  7e-06  0.107089  0.115545  -4.5e-05  1.013393  0.0
H  H106  1  0.01769444  0.19430372  0.34940686  1  0.130539  8e-06  0.106472  0.114271  -4.5e-05  1.01443  0.0
H  H107  1  0.84494021  0.16828955  0.15058345  1  0.139923  7e-06  0.107087  0.115541  -4.5e-05  1.013395  0.0
H  H108  1  0.29332775  0.60760526  0.53884580  1  0.154898  5.2e-05  0.112352  0.130049  -5.8e-05  1.036864  0.0
H  H109  1  0.06865988  0.25442504  0.96111558  1  0.145642  5.4e-05  0.112169  0.12957  -5.8e-05  1.037999  0.0
H  H110  1  0.70667375  0.39239497  0.46115399  1  0.15489  5.2e-05  0.112354  0.130039  -5.8e-05  1.036866  0.0
H  H111  1  0.93133931  0.74557168  0.03888524  1  0.145434  5.4e-05  0.112162  0.129577  -5.8e-05  1.037993  0.0
H  H112  1  0.04105979  0.52438374  0.54877821  1  0.10882  0.000249  0.106203  0.115721  0.000105  1.004783  0.0
H  H113  1  0.97579158  0.99246946  0.95118476  1  0.068987  0.000258  0.105908  0.115606  0.000104  1.00362  0.0
H  H114  1  0.95893945  0.47561565  0.45122182  1  0.108431  0.000249  0.106195  0.115713  0.000105  1.004786  0.0
H  H115  1  0.02420985  0.00753195  0.04881580  1  0.069517  0.000258  0.105896  0.115595  0.000104  1.0037  0.0
H  H116  1  0.21992246  0.76988106  0.72805802  1  0.113258  0.000866  0.121461  0.117695  0.000252  1.014817  0.001
H  H117  1  0.04198232  0.99190668  0.77192492  1  0.14027  0.000861  0.122122  0.118585  0.000252  1.013877  0.001
H  H118  1  0.78008310  0.23011991  0.27194414  1  0.113276  0.000866  0.121443  0.117696  0.000252  1.0148  0.001
H  H119  1  0.95802251  0.00809573  0.22807485  1  0.140303  0.000861  0.122097  0.118548  0.000252  1.013876  0.001
H  H120  1  0.27065378  0.72267148  0.27728540  1  0.116167  0.000686  0.11854  0.115816  0.000173  1.013062  0.001
H  H121  1  0.44537162  0.49360058  0.22272353  1  0.126312  0.000688  0.118528  0.115426  0.000173  1.012738  0.001
H  H122  1  0.72934667  0.27732740  0.72271417  1  0.116179  0.000687  0.118541  0.115792  0.000173  1.01309  0.001
H  H123  1  0.55462859  0.50640086  0.77727665  1  0.126329  0.000688  0.118506  0.115433  0.000173  1.012718  0.001
H  H124  1  0.34307865  0.68917044  0.37908171  1  0.104056  0.00099  0.125808  0.124223  0.000414  1.006946  0.001
H  H125  1  0.30997141  0.46411059  0.12092244  1  0.10636  0.00099  0.125557  0.124392  0.000414  1.007163  0.001
H  H126  1  0.65692088  0.31083003  0.62091862  1  0.104124  0.00099  0.125797  0.12423  0.000414  1.00694  0.001
H  H127  1  0.69002878  0.53589038  0.87907689  1  0.106371  0.00099  0.125568  0.124432  0.000414  1.007141  0.001
H  H128  1  0.55869311  0.79316543  0.58481610  1  0.099025  0.000918  0.125439  0.125073  0.000412  1.015156  0.0
H  H129  1  0.20824780  0.47385751  0.91506807  1  0.119603  0.000898  0.124988  0.124043  0.00041  1.014946  0.0
H  H130  1  0.44130911  0.20683240  0.41518438  1  0.098832  0.000918  0.125423  0.125039  0.000412  1.015172  0.0
H  H131  1  0.79175283  0.52614046  0.08493250  1  0.119366  0.000899  0.124998  0.124049  0.00041  1.014983  0.0
C  C132  1  0.94714509  0.58149201  0.59404819  1  0.026313  0.006938  -0.011111  -0.070417  0.004075  3.954319  0.006
C  C133  1  0.98753974  0.85329019  0.90582622  1  -0.057455  0.006946  -0.011519  -0.072161  0.004088  3.956756  0.006
C  C134  1  0.05285575  0.41850772  0.40595261  1  0.026299  0.006937  -0.011073  -0.070388  0.004075  3.95426  0.006
C  C135  1  0.01245570  0.14670734  0.09417337  1  -0.05758  0.006946  -0.011626  -0.072324  0.004088  3.956791  0.006
C  C136  1  0.23464967  0.83757696  0.53670271  1  -0.01389  0.000197  -0.07938  -0.12623  0.000102  3.980068  0.0
C  C137  1  0.30074858  0.19785589  0.96335650  1  -0.013812  0.000194  -0.079607  -0.126145  0.000102  3.982516  0.0
C  C138  1  0.76535129  0.16242476  0.46329738  1  -0.013861  0.000197  -0.079391  -0.126299  0.000102  3.980067  0.0
C  C139  1  0.69925120  0.80214250  0.03664407  1  -0.013606  0.000194  -0.079613  -0.126148  0.000102  3.982513  0.0
C  C140  1  0.74208609  0.59735398  0.66359940  1  0.002735  -0.000827  -0.082677  -0.141345  -0.001228  3.938016  0.0
C  C141  1  0.93366019  0.57843942  0.83620012  1  -0.024709  -0.000829  -0.083495  -0.141972  -0.001225  3.937774  0.0
C  C142  1  0.25791749  0.40264627  0.33640161  1  0.002584  -0.000827  -0.082704  -0.141349  -0.001228  3.938069  0.0
C  C143  1  0.06633909  0.42156265  0.16379913  1  -0.024763  -0.000829  -0.083513  -0.142038  -0.001225  3.937843  0.0
C  C144  1  0.84911929  0.64781579  0.65379833  1  -0.047146  0.001513  -0.00776  0.066437  0.000837  4.013487  0.001
C  C145  1  0.99393433  0.69530431  0.84605641  1  -0.035585  0.001505  -0.007265  0.067845  0.000835  4.013379  0.001
C  C146  1  0.15088269  0.35218460  0.34620277  1  -0.046953  0.001513  -0.007792  0.066437  0.000837  4.013472  0.001
C  C147  1  0.00606275  0.30469575  0.15394232  1  -0.035571  0.001505  -0.007228  0.067911  0.000835  4.013287  0.001
C  C148  1  0.50832855  0.94050118  0.45518469  1  0.0235  -0.000437  -0.085561  -0.155561  -0.000528  4.014271  0.0
C  C149  1  0.48533370  0.55327088  0.04476477  1  0.027923  -0.000438  -0.086249  -0.156089  -0.000529  4.012399  0.0
C  C150  1  0.49167275  0.05949776  0.54481572  1  0.023326  -0.000436  -0.085569  -0.155552  -0.000528  4.014126  0.0
C  C151  1  0.51466668  0.44672917  0.95523557  1  0.027713  -0.000438  -0.086181  -0.155865  -0.000529  4.01222  0.0
C  C152  1  0.91226731  0.58116774  0.64132566  1  -0.020375  0.002849  -0.002974  0.042577  0.001581  3.982372  0.002
C  C153  1  0.93985899  0.77101465  0.85857071  1  0.057044  0.002843  -0.003908  0.041271  0.001585  3.98398  0.002
C  C154  1  0.08773353  0.41883200  0.35867514  1  -0.020396  0.00285  -0.002895  0.042674  0.001581  3.982416  0.002
C  C155  1  0.06013839  0.22898648  0.14142833  1  0.056915  0.002843  -0.003845  0.041346  0.001585  3.983928  0.002
C  C156  1  0.73908596  0.77907317  0.68281001  1  -0.00829  -0.000959  -0.078614  -0.107577  -0.001244  3.952041  -0.001
C  C157  1  0.09621244  0.55619075  0.81712942  1  0.057515  -0.000952  -0.077781  -0.106187  -0.001239  3.950455  -0.001
C  C158  1  0.26091706  0.22092761  0.31718962  1  -0.008335  -0.000959  -0.078595  -0.107515  -0.001244  3.952055  -0.001
C  C159  1  0.90378857  0.44381364  0.18286990  1  0.057209  -0.000952  -0.077693  -0.106047  -0.001239  3.950337  -0.001
C  C160  1  0.26784238  0.67979621  0.47074213  1  0.05295  0.000175  -0.086228  -0.143043  8.1e-05  3.978544  0.0
C  C161  1  0.20876968  0.29696858  0.02925705  1  0.048903  0.000175  -0.085803  -0.143774  8.2e-05  3.981664  0.0
C  C162  1  0.73216057  0.32020623  0.52925911  1  0.05291  0.000175  -0.086228  -0.143088  8.1e-05  3.978465  0.0
C  C163  1  0.79122812  0.70302956  0.97074322  1  0.048941  0.000175  -0.085707  -0.143553  8.2e-05  3.981428  0.0
C  C164  1  0.22434674  0.84148183  0.48312635  1  0.029308  5.1e-05  -0.089366  -0.155421  1e-05  3.992325  0.0
C  C165  1  0.35809259  0.24109560  0.01694445  1  0.03934  5.6e-05  -0.088879  -0.155857  1.1e-05  3.992595  0.0
C  C166  1  0.77565583  0.15852023  0.51687451  1  0.029355  5.1e-05  -0.089374  -0.155401  1e-05  3.992187  0.0
C  C167  1  0.64190778  0.75890445  0.98305588  1  0.03958  5.6e-05  -0.088891  -0.155825  1.1e-05  3.992565  0.0
C  C168  1  0.34301363  0.71370056  0.64311378  1  0.96254  -0.003533  0.136768  0.087751  -0.004474  3.90784  -0.002
C  C169  1  0.07054875  0.19986426  0.85688378  1  0.9524  -0.003559  0.137767  0.09013  -0.004474  3.904971  -0.002
C  C170  1  0.65698463  0.28629680  0.35688611  1  0.962489  -0.003533  0.136772  0.087751  -0.004473  3.90783  -0.002
C  C171  1  0.92945094  0.80013434  0.14311586  1  0.95217  -0.003559  0.137761  0.090183  -0.004474  3.905051  -0.002
C  C172  1  0.26250696  0.75534088  0.55751581  1  0.315273  0.000563  0.097082  0.163242  0.000323  4.017581  0.001
C  C173  1  0.19776264  0.20496568  0.94249465  1  0.288754  0.000567  0.096934  0.161521  0.000324  4.020425  0.001
C  C174  1  0.73749418  0.24465993  0.44248529  1  0.315259  0.000563  0.09709  0.163253  0.000323  4.01765  0.001
C  C175  1  0.80223631  0.79503313  0.05750592  1  0.288501  0.000567  0.096934  0.161515  0.000324  4.020518  0.001
C  C176  1  0.00709241  0.46193063  0.66873342  1  -0.028666  0.003661  -0.08211  -0.079599  0.001976  3.950141  0.002
C  C177  1  0.79313171  0.83845266  0.83130336  1  -0.073535  0.003689  -0.081768  -0.079782  0.001987  3.952595  0.002
C  C178  1  0.99290729  0.53806845  0.33126708  1  -0.028635  0.003661  -0.08209  -0.07953  0.001977  3.950003  0.002
C  C179  1  0.20686699  0.16154823  0.16869698  1  -0.073413  0.003689  -0.081797  -0.079776  0.001987  3.952621  0.002
C  C180  1  0.10616357  0.39644858  0.60868326  1  1.54479  0.000449  0.218805  0.592244  -0.000229  4.169438  0.0
C  C181  1  0.78754970  0.99734548  0.89142733  1  1.559713  0.00043  0.217989  0.590201  -0.000254  4.173091  0.0
C  C182  1  0.89383588  0.60355211  0.39131615  1  1.54482  0.000449  0.218859  0.592289  -0.000229  4.169311  0.0
C  C183  1  0.21244967  0.00265638  0.10857285  1  1.559718  0.00043  0.218019  0.590231  -0.000253  4.173103  0.0
C  C184  1  0.24203938  0.76314703  0.45017535  1  0.260733  0.000522  0.091356  0.153635  0.00029  4.032542  0.001
C  C185  1  0.31267324  0.29176408  0.04985921  1  0.264612  0.000517  0.092228  0.157402  0.000288  4.031433  0.001
C  C186  1  0.75796387  0.23685600  0.54982534  1  0.260766  0.000522  0.091419  0.153725  0.00029  4.032449  0.001
C  C187  1  0.68732599  0.70823532  0.95014082  1  0.264587  0.000517  0.09221  0.157305  0.000288  4.031496  0.001
C  C188  1  0.16840877  0.80888877  0.36439530  1  0.958299  -0.004887  0.149962  0.107087  -0.006292  3.900638  -0.003
C  C189  1  0.44433810  0.30409051  0.13563797  1  0.981344  -0.004898  0.148386  0.104418  -0.006273  3.902079  -0.003
C  C190  1  0.83159083  0.19111052  0.63560426  1  0.958206  -0.004887  0.149948  0.107018  -0.006292  3.900543  -0.003
C  C191  1  0.55566296  0.69591100  0.86436305  1  0.981311  -0.004898  0.148415  0.104445  -0.006272  3.902015  -0.003
C  C192  1  0.54530714  0.92092899  0.50579409  1  0.295271  0.000241  0.098291  0.160668  -1e-06  4.036131  0.0
C  C193  1  0.41506752  0.53943817  0.99415615  1  0.299281  0.000237  0.097997  0.161358  -3e-06  4.032566  0.0
C  C194  1  0.45469461  0.07906916  0.49420594  1  0.295495  0.000241  0.098269  0.160685  -1e-06  4.036002  0.0
C  C195  1  0.58493298  0.46056387  0.00584349  1  0.299098  0.000237  0.098021  0.161318  -2e-06  4.03256  0.0
C  C196  1  0.64466493  0.80892276  0.47708444  1  0.941075  -0.006032  0.143588  0.095967  -0.007478  3.884643  -0.004
C  C197  1  0.33178445  0.66748330  0.02285432  1  0.98016  -0.00598  0.144278  0.097584  -0.007462  3.883637  -0.004
C  C198  1  0.35533485  0.19107514  0.52291528  1  0.940898  -0.006032  0.143592  0.095917  -0.007478  3.884745  -0.004
C  C199  1  0.66821499  0.33251739  0.97714509  1  0.980195  -0.00598  0.14422  0.097433  -0.007462  3.883784  -0.004
C  C200  1  0.64836965  0.71579898  0.54118366  1  0.453441  -0.00098  0.013398  0.005177  -0.00153  3.950847  -0.001
C  C201  1  0.17462474  0.60717465  0.95876400  1  0.457686  -0.000988  0.012604  0.001607  -0.001533  3.952156  -0.001
C  C202  1  0.35163028  0.28419706  0.45881538  1  0.45362  -0.000982  0.013439  0.005156  -0.001529  3.950895  -0.001
C  C203  1  0.82537419  0.39282368  0.04123573  1  0.457675  -0.000988  0.01256  0.001506  -0.001532  3.9522  -0.001
C  C204  1  0.94411415  0.52188858  0.67844229  1  -0.050797  -5.8e-05  -0.091275  -0.129202  -0.000274  3.989298  0.0
C  C205  1  0.84337303  0.76576353  0.82153803  1  -0.049668  -6.7e-05  -0.090698  -0.12869  -0.000279  3.986987  0.0
C  C206  1  0.05588859  0.47811209  0.32155873  1  -0.050775  -5.9e-05  -0.091336  -0.129366  -0.000274  3.989335  0.0
C  C207  1  0.15662436  0.23423809  0.17846185  1  -0.049491  -6.7e-05  -0.090718  -0.128746  -0.000279  3.987033  0.0
C  C208  1  0.91645813  0.64467247  0.55296107  1  1.596654  -0.001723  0.215773  0.585794  -0.002749  4.19189  -0.003
C  C209  1  0.09185529  0.86374653  0.94693064  1  1.595635  -0.001653  0.217254  0.588049  -0.002763  4.18772  -0.003
C  C210  1  0.08354119  0.35532623  0.44703904  1  1.596658  -0.001724  0.215788  0.585785  -0.002749  4.191938  -0.003
C  C211  1  0.90814288  0.13625152  0.05306917  1  1.595701  -0.001652  0.217222  0.588008  -0.002762  4.187628  -0.003
C  C212  1  0.21269562  0.78082408  0.64366502  1  0.267719  0.003347  0.002345  -0.104733  0.001883  3.911886  0.002
C  C213  1  0.13734982  0.06915266  0.85630071  1  0.292186  0.00332  0.002359  -0.104238  0.001886  3.91177  0.002
C  C214  1  0.78730417  0.21917479  0.35633640  1  0.26747  0.003347  0.002351  -0.104777  0.001883  3.911864  0.002
C  C215  1  0.86265085  0.93084799  0.14369908  1  0.292249  0.00332  0.002383  -0.1042  0.001886  3.911739  0.002
C  C216  1  0.53676896  0.98077367  0.55070064  1  -0.025765  -1.5e-05  -0.084099  -0.145097  -0.000134  3.980766  0.0
C  C217  1  0.42999315  0.48586173  0.94928771  1  -0.010907  -1.4e-05  -0.083934  -0.145553  -0.000134  3.978428  0.0
C  C218  1  0.46323175  0.01922360  0.44930001  1  -0.025802  -1.5e-05  -0.084058  -0.145075  -0.000134  3.980918  0.0
C  C219  1  0.57000753  0.51413939  0.05071292  1  -0.011322  -1.4e-05  -0.083927  -0.145442  -0.000134  3.978457  0.0
C  C220  1  0.84512132  0.83025813  0.67300301  1  -0.077059  0.007982  -0.01816  -0.029066  0.004624  3.991403  0.006
C  C221  1  0.15720791  0.67208356  0.82694599  1  -0.104704  0.007959  -0.019183  -0.028813  0.004626  3.99194  0.006
C  C222  1  0.15488057  0.16974248  0.32699716  1  -0.07726  0.007982  -0.018125  -0.028909  0.004624  3.991349  0.006
C  C223  1  0.84279007  0.32791972  0.17305365  1  -0.104633  0.007959  -0.019243  -0.028942  0.004626  3.991908  0.006
C  C224  1  0.04124063  0.46194382  0.62153435  1  -0.039239  0.00411  -0.021513  -0.04107  0.0024  3.978264  0.003
C  C225  1  0.84035153  0.91979140  0.87850876  1  -0.001131  0.004079  -0.021219  -0.039884  0.002404  3.979965  0.003
C  C226  1  0.95875974  0.53805623  0.37846598  1  -0.039311  0.00411  -0.02153  -0.041119  0.0024  3.978296  0.003
C  C227  1  0.15964670  0.08020980  0.12149112  1  -0.001171  0.004079  -0.02126  -0.03991  0.002404  3.980074  0.003
C  C228  1  0.89912171  0.76435397  0.65780643  1  -0.083345  -0.00073  -0.07254  -0.122618  -0.001293  3.897141  0.0
C  C229  1  0.10650051  0.74129138  0.84214344  1  -0.0771  -0.000749  -0.07286  -0.12479  -0.001294  3.899949  0.0
C  C230  1  0.10088102  0.23564622  0.34219374  1  -0.08304  -0.00073  -0.0726  -0.122785  -0.001293  3.897261  0.0
C  C231  1  0.89349670  0.25871115  0.15785543  1  -0.077117  -0.000749  -0.072885  -0.124801  -0.001294  3.899965  0.0
C  C232  1  0.27785158  0.67581369  0.52429067  1  -0.058193  -5.3e-05  -0.08558  -0.148345  -0.00011  3.96287  0.0
C  C233  1  0.15138800  0.25347122  0.97569640  1  -0.058465  -5.7e-05  -0.085973  -0.148222  -0.000113  3.967181  0.0
C  C234  1  0.72215014  0.32418831  0.47570935  1  -0.058188  -5.3e-05  -0.085586  -0.14832  -0.00011  3.962759  0.0
C  C235  1  0.84860989  0.74652623  0.02430395  1  -0.058238  -5.7e-05  -0.086027  -0.148333  -0.000113  3.967246  0.0
C  C236  1  0.68619087  0.66282207  0.67754343  1  0.006152  0.005296  -0.027735  -0.053094  0.00309  4.01713  0.004
C  C237  1  0.98524535  0.50856939  0.82236303  1  -0.039432  0.005267  -0.027411  -0.052159  0.003096  4.014426  0.004
C  C238  1  0.31381186  0.33717860  0.32245759  1  0.006109  0.005296  -0.027701  -0.053089  0.00309  4.017266  0.004
C  C239  1  0.01475712  0.49143240  0.17763605  1  -0.039508  0.005267  -0.027381  -0.052073  0.003096  4.014491  0.004
C  C240  1  0.01256285  0.52347892  0.58495595  1  -0.060774  0.003574  -0.080336  -0.111707  0.001988  3.942116  0.002
C  C241  1  0.93860461  0.92778119  0.91498639  1  -0.020924  0.003581  -0.080051  -0.110956  0.001996  3.941205  0.002
C  C242  1  0.98743744  0.47652182  0.41504430  1  -0.06077  0.003575  -0.080373  -0.111737  0.001988  3.942102  0.002
C  C243  1  0.06139560  0.07222025  0.08501378  1  -0.020873  0.003581  -0.080006  -0.11087  0.001996  3.941284  0.002
C  C244  1  0.24764771  0.75862316  0.69267899  1  0.453136  -0.000516  0.006179  -0.011702  -0.00102  3.965635  0.0
C  C245  1  0.06606495  0.05501499  0.80730059  1  0.397013  -0.00048  0.004536  -0.014418  -0.001028  3.965184  0.0
C  C246  1  0.75235427  0.24137724  0.30732210  1  0.452867  -0.000517  0.006207  -0.011647  -0.00102  3.965499  0.0
C  C247  1  0.93393588  0.94498427  0.19269936  1  0.396969  -0.00048  0.004559  -0.01434  -0.001029  3.965071  0.0
C  C248  1  0.25013231  0.74446882  0.31364523  1  0.404816  0.000186  -0.002829  -0.034337  -0.000274  4.011886  0.0
C  C249  1  0.43075033  0.43665287  0.18636602  1  0.386241  0.000211  -0.002346  -0.032733  -0.000269  4.012664  0.0
C  C250  1  0.74986966  0.25553109  0.68635503  1  0.404821  0.000186  -0.002876  -0.034319  -0.000274  4.011988  0.0
C  C251  1  0.56925065  0.56334933  0.81363492  1  0.386307  0.000211  -0.002358  -0.032818  -0.000269  4.012699  0.0
C  C252  1  0.28611204  0.72644363  0.36359211  1  0.308926  0.002994  0.000854  -0.106963  0.001654  3.945241  0.002
C  C253  1  0.36269239  0.42260938  0.13643371  1  0.316673  0.00298  0.00078  -0.107691  0.001653  3.947322  0.002
C  C254  1  0.71388893  0.27355857  0.63640883  1  0.308851  0.002994  0.000941  -0.106913  0.001655  3.945097  0.002
C  C255  1  0.63730753  0.57739147  0.86356701  1  0.316677  0.00298  0.000747  -0.107754  0.001653  3.94742  0.002
C  C256  1  0.90343230  0.95620282  0.68297656  1  1.593514  -0.000739  0.201664  0.564357  -0.001381  4.226034  -0.002
C  C257  1  0.27319622  0.72029874  0.81697931  1  1.572646  -0.000684  0.201251  0.561803  -0.001379  4.229238  -0.002
C  C258  1  0.09657117  0.04379717  0.31702268  1  1.593352  -0.000739  0.20164  0.564217  -0.001381  4.226149  -0.002
C  C259  1  0.72680269  0.27970391  0.18302125  1  1.572689  -0.000684  0.201301  0.561969  -0.001379  4.229207  -0.002
C  C260  1  0.59547142  0.78307717  0.55249717  1  0.30596  0.003846  0.002201  -0.102747  0.002172  3.906236  0.003
C  C261  1  0.23047511  0.54286964  0.94744314  1  0.295455  0.00384  0.002524  -0.100402  0.002166  3.907487  0.003
C  C262  1  0.40453003  0.21691991  0.44750255  1  0.305955  0.003846  0.002249  -0.102648  0.002172  3.906319  0.003
C  C263  1  0.76952504  0.45712865  0.05255697  1  0.295713  0.003839  0.002567  -0.100335  0.002166  3.907502  0.003
C  C264  1  0.57232605  0.61439889  0.68913855  1  1.532035  0.00049  0.208803  0.57217  -0.000131  4.188061  0.001
C  C265  1  0.92524721  0.38303825  0.81079518  1  1.505809  0.000531  0.207941  0.569727  -0.000118  4.192767  0.001
C  C266  1  0.42767622  0.38560210  0.31086201  1  1.532182  0.00049  0.208788  0.572203  -0.00013  4.187999  0.001
C  C267  1  0.07475281  0.61696363  0.18920314  1  1.505852  0.000532  0.207874  0.56966  -0.000117  4.192957  0.001
N  N268  1  0.32891574  0.71713942  0.69181321  1  -1.168839  0.061447  -0.340465  -0.25141  0.03534  3.561448  0.054
N  N269  1  0.02535845  0.13708738  0.80818169  1  -1.168978  0.061465  -0.340929  -0.252792  0.035354  3.561695  0.054
N  N270  1  0.67108510  0.28286032  0.30818759  1  -1.168485  0.061447  -0.340455  -0.251431  0.03534  3.561376  0.054
N  N271  1  0.97464360  0.86291184  0.19181864  1  -1.168735  0.061466  -0.34094  -0.252823  0.035355  3.561581  0.054
N  N272  1  0.67838785  0.73297134  0.49425833  1  -1.181701  0.061396  -0.35179  -0.27023  0.035077  3.627183  0.054
N  N273  1  0.23871379  0.68410323  0.00569200  1  -1.182486  0.061213  -0.352461  -0.271031  0.034999  3.626173  0.054
N  N274  1  0.32161162  0.26702550  0.50574110  1  -1.18188  0.061397  -0.351862  -0.270245  0.035076  3.627207  0.054
N  N275  1  0.76128627  0.31589527  0.99430718  1  -1.182493  0.061212  -0.352379  -0.270936  0.034998  3.626082  0.054
N  N276  1  0.17649434  0.79546068  0.31473885  1  -1.175228  0.05653  -0.349512  -0.294651  0.032415  3.616142  0.051
N  N277  1  0.48066592  0.36192965  0.18528279  1  -1.197052  0.056517  -0.348883  -0.29321  0.032413  3.617072  0.051
N  N278  1  0.82350460  0.20453764  0.68526088  1  -1.175227  0.056532  -0.349531  -0.294708  0.032416  3.616257  0.051
N  N279  1  0.51933439  0.63807157  0.81471831  1  -1.197029  0.056515  -0.348824  -0.293125  0.032412  3.617012  0.051
N  N280  1  0.23343142  0.76743617  0.39562112  1  -1.274261  0.001118  -0.226182  0.007413  0.000339  3.818722  0.001
N  N281  1  0.37159180  0.33782083  0.10441339  1  -1.276686  0.001126  -0.225832  0.006178  0.000343  3.819819  0.001
N  N282  1  0.76656993  0.23256593  0.60437936  1  -1.27417  0.001118  -0.22627  0.007319  0.000339  3.818706  0.001
N  N283  1  0.62840744  0.66217904  0.89558749  1  -1.276743  0.001126  -0.225822  0.006227  0.000343  3.819933  0.001
N  N284  1  0.27330864  0.75128140  0.61216592  1  -1.273682  0.001591  -0.227349  0.005168  0.000495  3.809648  0.001
N  N285  1  0.13917295  0.16117735  0.88782365  1  -1.272294  0.001596  -0.227752  0.005899  0.000498  3.810838  0.001
N  N286  1  0.72668984  0.24871771  0.38783419  1  -1.273466  0.001591  -0.227345  0.005195  0.000495  3.809562  0.001
N  N287  1  0.86082645  0.83882066  0.11217654  1  -1.272307  0.001596  -0.227786  0.005778  0.000497  3.810951  0.001
N  N288  1  0.59277600  0.84181728  0.51143823  1  -1.256368  0.001341  -0.227408  0.002797  0.000229  3.815078  0.001
N  N289  1  0.33026664  0.58119658  0.98849173  1  -1.278846  0.001339  -0.227016  0.00196  0.000227  3.81541  0.001
N  N290  1  0.40722575  0.15818087  0.48856180  1  -1.256093  0.001341  -0.227415  0.002777  0.000229  3.814923  0.001
N  N291  1  0.66973410  0.41880337  0.01150814  1  -1.278838  0.001338  -0.227062  0.001975  0.000226  3.8154  0.001
O  O292  1  0.09531273  0.30820731  0.62744397  1  -1.199409  0.001961  -0.31355  -0.583916  0.000316  2.240796  0.001
O  O293  1  0.68052598  0.96751952  0.87272664  1  -1.2101  0.001958  -0.312659  -0.582071  0.000299  2.241487  0.001
O  O294  1  0.90468763  0.69179227  0.37255552  1  -1.199446  0.001961  -0.313572  -0.583936  0.000316  2.240832  0.001
O  O295  1  0.31947468  0.03248112  0.12727315  1  -1.210088  0.001958  -0.312645  -0.582054  0.0003  2.241494  0.001
O  O296  1  0.54292305  0.68531361  0.71055905  1  -1.165681  0.051064  -0.303892  -0.535913  0.028384  2.346669  0.047
O  O297  1  0.97478342  0.33219227  0.78942776  1  -1.156553  0.051068  -0.30365  -0.535674  0.028292  2.350239  0.047
O  O298  1  0.45708083  0.31468771  0.28944227  1  -1.165813  0.051065  -0.303845  -0.535897  0.028384  2.346716  0.047
O  O299  1  0.02521605  0.66781061  0.21057002  1  -1.156558  0.051068  -0.303597  -0.535659  0.028292  2.350304  0.047
O  O300  1  0.71468849  0.71384785  0.38374194  1  -1.223973  0.057147  -0.570947  -0.738898  0.031513  2.077271  0.048
O  O301  1  0.33009804  0.83088520  0.11626642  1  -1.210836  0.057047  -0.571277  -0.738423  0.03153  2.076469  0.048
O  O302  1  0.28530733  0.28614957  0.61625719  1  -1.223632  0.057145  -0.571006  -0.73897  0.031513  2.077207  0.048
O  O303  1  0.66990102  0.16911511  0.88373261  1  -1.210977  0.057047  -0.571264  -0.738419  0.03153  2.076509  0.048
O  O304  1  0.81167438  0.60575484  0.52661182  1  -1.128536  0.084113  -0.306393  -0.532829  0.045907  2.28789  0.077
O  O305  1  0.07920270  0.78531602  0.97331568  1  -1.136762  0.084229  -0.308197  -0.53514  0.046077  2.287685  0.078
O  O306  1  0.18832616  0.39424383  0.47338867  1  -1.128528  0.084114  -0.306427  -0.532869  0.045908  2.287921  0.077
O  O307  1  0.92079321  0.21468120  0.02668438  1  -1.136712  0.084228  -0.308189  -0.535101  0.046077  2.287724  0.078
O  O308  1  0.90912392  0.81065200  0.47524254  1  -1.215143  0.082226  -0.575984  -0.728068  0.044817  2.08118  0.07
O  O309  1  0.33536191  0.93387218  0.02469224  1  -1.226045  0.082475  -0.575102  -0.725661  0.044978  2.082696  0.07
O  O310  1  0.09087463  0.18934594  0.52475681  1  -1.215086  0.082229  -0.575979  -0.728053  0.044818  2.081244  0.07
O  O311  1  0.66463572  0.06612688  0.97530703  1  -1.226167  0.082477  -0.575079  -0.725603  0.044978  2.082789  0.07
O  O312  1  0.16798182  0.43100354  0.57696069  1  -1.161919  0.05851  -0.31631  -0.571984  0.032036  2.386178  0.054
O  O313  1  0.85374840  0.09095518  0.92312327  1  -1.168069  0.05859  -0.316969  -0.572428  0.032081  2.388206  0.054
O  O314  1  0.83201588  0.56899435  0.42303781  1  -1.161856  0.058509  -0.316345  -0.571988  0.032036  2.386092  0.054
O  O315  1  0.14625144  0.90904636  0.07687737  1  -1.168029  0.05859  -0.316959  -0.572429  0.032081  2.388231  0.054
O  O316  1  0.50172714  0.85357270  0.78586605  1  -1.255039  0.077007  -0.586007  -0.75929  0.042058  2.080569  0.067
O  O317  1  0.06796909  0.21603912  0.71413276  1  -1.248241  0.077023  -0.586904  -0.761175  0.042005  2.078642  0.067
O  O318  1  0.49827194  0.14642857  0.21413467  1  -1.255063  0.077004  -0.585969  -0.759271  0.042057  2.080636  0.067
O  O319  1  0.93203036  0.78396157  0.28586665  1  -1.248245  0.077023  -0.586936  -0.76119  0.042005  2.078618  0.067
O  O320  1  0.61612105  0.50055046  0.42396980  1  -1.218303  0.052693  -0.569219  -0.726914  0.029287  2.083726  0.045
O  O321  1  0.07652408  0.69207816  0.07597043  1  -1.210384  0.05261  -0.570092  -0.727738  0.029278  2.083912  0.045
O  O322  1  0.38387825  0.49944776  0.57602947  1  -1.218041  0.052691  -0.569236  -0.726902  0.029287  2.08368  0.045
O  O323  1  0.92347546  0.30792231  0.92402991  1  -1.210396  0.052612  -0.570097  -0.72778  0.029278  2.083936  0.045
O  O324  1  0.85189483  0.00621037  0.70456661  1  -1.152287  0.083437  -0.326164  -0.567658  0.045364  2.349027  0.077
O  O325  1  0.30154675  0.64708913  0.79539037  1  -1.148126  0.083271  -0.325883  -0.566704  0.04527  2.349145  0.077
O  O326  1  0.14811054  0.99379055  0.29543286  1  -1.152242  0.083438  -0.326158  -0.567617  0.045364  2.348968  0.077
O  O327  1  0.69845254  0.35291342  0.20460973  1  -1.148221  0.08327  -0.325875  -0.566754  0.045269  2.349157  0.077
O  O328  1  0.51186615  0.50735149  0.67654585  1  -1.218733  0.000928  -0.345733  -0.611825  -0.000178  2.157477  0.001
O  O329  1  0.83084229  0.33514883  0.82338825  1  -1.214192  0.000926  -0.345249  -0.611161  -0.000178  2.160648  0.001
O  O330  1  0.48813413  0.49264878  0.32345356  1  -1.218767  0.000928  -0.345739  -0.611834  -0.000178  2.157461  0.001
O  O331  1  0.16915838  0.66485181  0.17661155  1  -1.214243  0.000926  -0.345253  -0.611156  -0.000178  2.160703  0.001
O  O332  1  0.99758342  0.00259585  0.67212005  1  -1.173865  0.001551  -0.331654  -0.551977  -8.1e-05  2.109508  0.001
O  O333  1  0.33050928  0.82532514  0.82788018  1  -1.16752  0.001563  -0.330495  -0.549472  -7.8e-05  2.111803  0.001
O  O334  1  0.00242035  0.99740521  0.32787949  1  -1.173777  0.00155  -0.331617  -0.551894  -8.1e-05  2.109606  0.001
O  O335  1  0.66949077  0.17467817  0.17212069  1  -1.167496  0.001563  -0.330563  -0.549601  -7.8e-05  2.111854  0.001
O  O336  1  0.33243301  0.49693098  0.71183588  1  -1.219564  0.055506  -0.561482  -0.727364  0.030618  2.105485  0.048
O  O337  1  0.78497549  0.12021475  0.78807750  1  -1.204258  0.055525  -0.561712  -0.726697  0.030582  2.107885  0.048
O  O338  1  0.66756592  0.50306734  0.28816385  1  -1.219618  0.055507  -0.561494  -0.727365  0.030619  2.105485  0.048
O  O339  1  0.21502480  0.87978552  0.21192191  1  -1.204245  0.055527  -0.561674  -0.726672  0.030583  2.107898  0.048
O  O340  1  0.99732958  0.73024676  0.54755935  1  -1.182764  0.000562  -0.30697  -0.539402  -0.000845  2.200056  0.001
O  O341  1  0.18284195  0.94998172  0.95228833  1  -1.183313  0.000569  -0.30656  -0.539013  -0.000839  2.198847  0.001
O  O342  1  0.00266798  0.26975347  0.45244069  1  -1.18281  0.000562  -0.306967  -0.539352  -0.000845  2.200114  0.001
O  O343  1  0.81715567  0.05001686  0.04771009  1  -1.18336  0.000569  -0.30651  -0.538954  -0.000839  2.198704  0.001
