# generated using pymatgen
data_AlH11C18O7
_symmetry_space_group_name_H-M   'P 1'
_cell_length_a   17.13928700
_cell_length_b   20.25266531
_cell_length_c   20.25272918
_cell_angle_alpha   96.70321557
_cell_angle_beta   90.00045700
_cell_angle_gamma   89.99971098
_symmetry_Int_Tables_number   1
_chemical_formula_structural   AlH11C18O7
_chemical_formula_sum   'Al12 H132 C216 O84'
_cell_volume   6981.99454315
_cell_formula_units_Z   12
loop_
 _symmetry_equiv_pos_site_id
 _symmetry_equiv_pos_as_xyz
  1  'x, y, z'
loop_
 _atom_site_type_symbol
 _atom_site_label
 _atom_site_symmetry_multiplicity
 _atom_site_fract_x
 _atom_site_fract_y
 _atom_site_fract_z
 _atom_site_occupancy
 _atom_site_pbe_bader_charge
 _atom_site_pbe_bader_spin_density
 _atom_site_pbe_cm5_charge
 _atom_site_pbe_ddec_charge
 _atom_site_pbe_ddec_spin_density
 _atom_site_pbe_ddec_sum_bond_order
 _atom_site_pbe_magmom
Al  Al0  1  0.16355788  0.91644418  0.02726824  1  2.492357  0  0.395873  1.654886  0  2.575794  0
Al  Al1  1  0.16355280  0.58355351  0.47273566  1  2.492405  0  0.39593  1.655144  0  2.575558  0
Al  Al2  1  0.33644557  0.97273672  0.08355843  1  2.492374  0  0.395881  1.654966  0  2.575793  0
Al  Al3  1  0.33644555  0.52726728  0.41644287  1  2.492147  0  0.395919  1.65495  0  2.57578  0
Al  Al4  1  0.83644520  0.08355705  0.97273388  1  2.492271  0  0.395927  1.655111  0  2.575643  0
Al  Al5  1  0.83644561  0.41644272  0.52726296  1  2.492301  0  0.395959  1.655201  0  2.57553  0
Al  Al6  1  0.66355226  0.02726551  0.91644429  1  2.492205  0  0.395937  1.655045  0  2.575645  0
Al  Al7  1  0.66355812  0.47273195  0.58355706  1  2.492341  0  0.395937  1.654997  0  2.575787  0
Al  Al8  1  0.99999999  0.99999852  0.99999798  1  2.50476  0  0.39706  1.66034  0  2.568744  0
Al  Al9  1  0.00000029  0.49999551  0.49999587  1  2.504969  0  0.397049  1.660323  0  2.568691  0
Al  Al10  1  0.49999571  0.00000260  0.00000295  1  2.505003  0  0.397099  1.660315  0  2.568694  0
Al  Al11  1  0.50000125  0.49999911  0.49999991  1  2.504792  0  0.397034  1.660444  0  2.568591  0
H  H12  1  0.43515325  0.80317122  0.09106219  1  0.100383  0  0.114404  0.119966  0  0.986726  0
H  H13  1  0.43514164  0.69682599  0.40894152  1  0.101045  0  0.11435  0.119882  0  0.986483  0
H  H14  1  0.06484573  0.90894670  0.19683484  1  0.100667  0  0.114331  0.119945  0  0.986615  0
H  H15  1  0.06485243  0.59106180  0.30317105  1  0.100402  0  0.114368  0.11997  0  0.986602  0
H  H16  1  0.56485275  0.19683150  0.90893960  1  0.10049  0  0.114347  0.119919  0  0.986618  0
H  H17  1  0.56484977  0.30317017  0.59105067  1  0.100582  0  0.114352  0.119957  0  0.986653  0
H  H18  1  0.93514801  0.09105954  0.80317177  1  0.100486  0  0.114386  0.120013  0  0.986582  0
H  H19  1  0.93516057  0.40893745  0.69683135  1  0.100365  0  0.114355  0.119867  0  0.986767  0
H  H20  1  0.49890125  0.69104332  0.08573364  1  0.080491  0  0.109183  0.12448  0  0.989849  0
H  H21  1  0.49888669  0.80895862  0.41426952  1  0.080869  0  0.109173  0.124404  0  0.989709  0
H  H22  1  0.00110555  0.91426931  0.30896544  1  0.080594  0  0.109197  0.124478  0  0.98978  0
H  H23  1  0.00110481  0.58573594  0.19104066  1  0.080413  0  0.109195  0.124504  0  0.989719  0
H  H24  1  0.50111058  0.30896287  0.91426802  1  0.080714  0  0.10916  0.124486  0  0.989649  0
H  H25  1  0.50110472  0.19104005  0.58572492  1  0.080684  0  0.109225  0.124437  0  0.989744  0
H  H26  1  0.99889286  0.08573098  0.69104201  1  0.080728  0  0.109155  0.124401  0  0.989673  0
H  H27  1  0.99890119  0.41426082  0.80896098  1  0.080187  0  0.109187  0.124486  0  0.989936  0
H  H28  1  0.29163521  0.60115440  0.99371541  1  0.089183  0  0.098612  0.113898  0  1.04388  0
H  H29  1  0.29161336  0.89884649  0.50627521  1  0.089426  0  0.098623  0.113898  0  1.04401  0
H  H30  1  0.20838042  0.00628274  0.39884981  1  0.089233  0  0.098631  0.113855  0  1.043952  0
H  H31  1  0.20837407  0.49372448  0.10115168  1  0.089176  0  0.098618  0.113892  0  1.043987  0
H  H32  1  0.70838362  0.39884671  0.00627436  1  0.089348  0  0.098579  0.113858  0  1.043962  0
H  H33  1  0.70838097  0.10115316  0.49371785  1  0.089286  0  0.098618  0.113833  0  1.044034  0
H  H34  1  0.79162207  0.99371950  0.60115440  1  0.089245  0  0.098615  0.113867  0  1.044025  0
H  H35  1  0.79163484  0.50627521  0.89884583  1  0.089265  0  0.098636  0.113941  0  1.043847  0
H  H36  1  0.23077822  0.71323532  0.99648557  1  0.091371  0  0.109401  0.113623  0  0.994569  0
H  H37  1  0.23076167  0.78676430  0.50350450  1  0.091554  0  0.109356  0.113624  0  0.994338  0
H  H38  1  0.26922783  0.00351417  0.28676442  1  0.091247  0  0.109399  0.11362  0  0.994499  0
H  H39  1  0.26922951  0.49649082  0.21323378  1  0.091538  0  0.109389  0.113674  0  0.994448  0
H  H40  1  0.76923420  0.28676433  0.00350650  1  0.091636  0  0.10934  0.113601  0  0.99436  0
H  H41  1  0.76922974  0.21323731  0.49648532  1  0.091433  0  0.109396  0.113578  0  0.994481  0
H  H42  1  0.73076942  0.99648953  0.71323648  1  0.091163  0  0.109402  0.113607  0  0.994429  0
H  H43  1  0.73077998  0.50350738  0.78676308  1  0.091411  0  0.109406  0.113634  0  0.994511  0
H  H44  1  0.56406946  0.44061104  0.75405536  1  0.07018  0  0.112994  0.118541  0  0.989676  0
H  H45  1  0.56406822  0.05939175  0.74594786  1  0.070047  0  0.113005  0.118505  0  0.989593  0
H  H46  1  0.93592824  0.24594009  0.55939019  1  0.070109  0  0.113029  0.118592  0  0.989569  0
H  H47  1  0.93593759  0.25405583  0.94060542  1  0.070178  0  0.113023  0.118545  0  0.989586  0
H  H48  1  0.43593362  0.55939968  0.24595222  1  0.070137  0  0.113025  0.11856  0  0.989664  0
H  H49  1  0.43592902  0.94061448  0.25405825  1  0.070171  0  0.113002  0.118534  0  0.989534  0
H  H50  1  0.06407134  0.75405161  0.44060203  1  0.069966  0  0.113001  0.118502  0  0.98963  0
H  H51  1  0.06406957  0.74594791  0.05939944  1  0.070036  0  0.113035  0.11861  0  0.989685  0
H  H52  1  0.49060021  0.41802896  0.85638119  1  0.086479  0  0.103821  0.117454  0  1.044953  0
H  H53  1  0.49059729  0.08196360  0.64361403  1  0.086908  0  0.103826  0.117505  0  1.044946  0
H  H54  1  0.00940352  0.14361261  0.58196761  1  0.08644  0  0.103848  0.117532  0  1.044909  0
H  H55  1  0.00941206  0.35638871  0.91803618  1  0.086559  0  0.103853  0.117505  0  1.044902  0
H  H56  1  0.50940170  0.58197475  0.14361971  1  0.086471  0  0.103817  0.117473  0  1.044864  0
H  H57  1  0.50940579  0.91803762  0.35638710  1  0.086929  0  0.103823  0.117483  0  1.044979  0
H  H58  1  0.99059664  0.85638312  0.41803096  1  0.086545  0  0.103834  0.117478  0  1.044933  0
H  H59  1  0.99059919  0.64361752  0.08196944  1  0.086428  0  0.103826  0.117456  0  1.044957  0
H  H60  1  0.27480244  0.45998414  0.76023860  1  0.035406  0  0.10632  0.120941  0  1.006497  0
H  H61  1  0.27479951  0.04001018  0.73975585  1  0.035351  0  0.106256  0.120882  0  1.006573  0
H  H62  1  0.22519731  0.23976290  0.54001472  1  0.035351  0  0.106338  0.121012  0  1.006545  0
H  H63  1  0.22520390  0.26023614  0.95998731  1  0.03522  0  0.106314  0.120917  0  1.006518  0
H  H64  1  0.72520064  0.54001309  0.23976062  1  0.035362  0  0.106303  0.120929  0  1.006522  0
H  H65  1  0.72519657  0.95999099  0.26024034  1  0.03535  0  0.106294  0.120924  0  1.006608  0
H  H66  1  0.77480285  0.76023839  0.45999284  1  0.035418  0  0.106285  0.120888  0  1.006542  0
H  H67  1  0.77480502  0.73975813  0.04001406  1  0.035499  0  0.106311  0.120905  0  1.006551  0
H  H68  1  0.34891000  0.48235302  0.65865483  1  0.061675  0  0.108563  0.111265  0  0.994561  0
H  H69  1  0.34890174  0.01764950  0.84134198  1  0.061725  0  0.108549  0.111185  0  0.994536  0
H  H70  1  0.15108589  0.34134284  0.51764625  1  0.061829  0  0.108464  0.111141  0  0.994351  0
H  H71  1  0.15109620  0.15865041  0.98234627  1  0.061662  0  0.108619  0.111297  0  0.99452  0
H  H72  1  0.65109658  0.51764669  0.34134367  1  0.061718  0  0.108559  0.111256  0  0.994617  0
H  H73  1  0.65108792  0.98235669  0.15865968  1  0.061756  0  0.108459  0.111083  0  0.994441  0
H  H74  1  0.84890902  0.65865438  0.48235198  1  0.061695  0  0.108561  0.111216  0  0.994524  0
H  H75  1  0.84890746  0.84134381  0.01765016  1  0.061797  0  0.108549  0.111265  0  0.994565  0
H  H76  1  0.48666797  0.20361354  0.02877254  1  0.099266  0  0.106913  0.110029  0  1.013999  0
H  H77  1  0.48668494  0.29638172  0.47122510  1  0.098929  0  0.10696  0.110223  0  1.013987  0
H  H78  1  0.01331472  0.97123123  0.79638548  1  0.098799  0  0.106978  0.110282  0  1.013912  0
H  H79  1  0.01331210  0.52877723  0.70361642  1  0.09892  0  0.106971  0.110218  0  1.013946  0
H  H80  1  0.51331119  0.79638165  0.97122153  1  0.098877  0  0.106955  0.110154  0  1.014005  0
H  H81  1  0.51331522  0.70361101  0.52877118  1  0.098839  0  0.107006  0.110273  0  1.013888  0
H  H82  1  0.98668894  0.02877047  0.20361372  1  0.098694  0  0.10696  0.110209  0  1.013943  0
H  H83  1  0.98667231  0.47122253  0.29638752  1  0.099222  0  0.106935  0.110127  0  1.013998  0
H  H84  1  0.45762795  0.32503671  0.04049311  1  0.090374  0  0.102768  0.117222  0  1.026594  0
H  H85  1  0.45763153  0.17495817  0.45950577  1  0.090249  0  0.102708  0.117193  0  1.026582  0
H  H86  1  0.04236732  0.95950893  0.67496366  1  0.090241  0  0.102739  0.117243  0  1.02663  0
H  H87  1  0.04235993  0.54049943  0.82503842  1  0.090143  0  0.102675  0.117136  0  1.02665  0
H  H88  1  0.54235705  0.67495746  0.95949789  1  0.090071  0  0.102665  0.117192  0  1.026568  0
H  H89  1  0.54236046  0.82503710  0.54049571  1  0.09024  0  0.102732  0.117227  0  1.026594  0
H  H90  1  0.95763926  0.04048880  0.32503611  1  0.090223  0  0.102699  0.117202  0  1.026618  0
H  H91  1  0.95763439  0.45950380  0.17496490  1  0.090249  0  0.102722  0.117195  0  1.026626  0
H  H92  1  0.23435313  0.28816349  0.12685706  1  0.104522  0  0.112087  0.127817  0  0.981426  0
H  H93  1  0.23435802  0.21184859  0.37314167  1  0.104632  0  0.112167  0.127882  0  0.981505  0
H  H94  1  0.26563491  0.87314355  0.71184976  1  0.104818  0  0.11224  0.128005  0  0.981435  0
H  H95  1  0.26563600  0.62686008  0.78815677  1  0.104713  0  0.112169  0.127885  0  0.981516  0
H  H96  1  0.76563420  0.71184414  0.87313884  1  0.104485  0  0.112186  0.127922  0  0.981477  0
H  H97  1  0.76563456  0.78815559  0.62685682  1  0.104735  0  0.112214  0.127952  0  0.981496  0
H  H98  1  0.73436934  0.12685817  0.28815142  1  0.104875  0  0.112247  0.128035  0  0.981389  0
H  H99  1  0.73435833  0.37313608  0.21183443  1  0.104599  0  0.112117  0.127825  0  0.98148  0
H  H100  1  0.26488913  0.16589557  0.11584403  1  0.103553  0  0.111358  0.11524  0  0.988677  0
H  H101  1  0.26490740  0.33411291  0.38415402  1  0.103086  0  0.111318  0.115142  0  0.988828  0
H  H102  1  0.23509043  0.88415751  0.83411421  1  0.103154  0  0.111311  0.115127  0  0.988842  0
H  H103  1  0.23509685  0.61584423  0.66589143  1  0.103014  0  0.111305  0.115096  0  0.988726  0
H  H104  1  0.73509177  0.83411412  0.88415949  1  0.103174  0  0.111329  0.115168  0  0.988841  0
H  H105  1  0.73509568  0.66588774  0.61583965  1  0.103167  0  0.111327  0.115143  0  0.988786  0
H  H106  1  0.76491557  0.11584568  0.16588467  1  0.103309  0  0.111341  0.115181  0  0.988804  0
H  H107  1  0.76489223  0.38414949  0.33410495  1  0.103503  0  0.111354  0.11515  0  0.988772  0
H  H108  1  0.40596417  0.53630810  0.91350233  1  0.101856  0  0.115599  0.149902  0  0.983636  0
H  H109  1  0.40595611  0.96368393  0.58648761  1  0.10193  0  0.115587  0.149968  0  0.983545  0
H  H110  1  0.09404143  0.08649129  0.46368830  1  0.101919  0  0.115599  0.149862  0  0.983641  0
H  H111  1  0.09403961  0.41351343  0.03631906  1  0.101891  0  0.115592  0.149937  0  0.983561  0
H  H112  1  0.59404474  0.46369055  0.08648964  1  0.101896  0  0.115548  0.149813  0  0.983692  0
H  H113  1  0.59403880  0.03631278  0.41350958  1  0.101866  0  0.11561  0.149924  0  0.983612  0
H  H114  1  0.90596224  0.91350794  0.53631261  1  0.101996  0  0.115588  0.149947  0  0.983584  0
H  H115  1  0.90596055  0.58649086  0.96369079  1  0.102056  0  0.115623  0.149957  0  0.983632  0
H  H116  1  0.39314554  0.49605393  0.11815818  1  0.082132  0  0.116626  0.15165  0  0.990118  0
H  H117  1  0.39313658  0.00394407  0.38183171  1  0.082004  0  0.116597  0.151564  0  0.990144  0
H  H118  1  0.10685951  0.88183329  0.50394709  1  0.08199  0  0.116603  0.151602  0  0.990117  0
H  H119  1  0.10685736  0.61816836  0.99605225  1  0.081866  0  0.116574  0.151491  0  0.990229  0
H  H120  1  0.60687096  0.50394473  0.88183527  1  0.082128  0  0.116707  0.151714  0  0.990029  0
H  H121  1  0.60685833  0.99605264  0.61816499  1  0.082019  0  0.11663  0.151635  0  0.99012  0
H  H122  1  0.89314007  0.11816549  0.49605823  1  0.081968  0  0.116632  0.151592  0  0.990152  0
H  H123  1  0.89313930  0.38183330  0.00394251  1  0.081912  0  0.116612  0.151531  0  0.990121  0
H  H124  1  0.30997904  0.35034496  0.96052041  1  0.103995  0  0.113564  0.14333  0  1.011944  0
H  H125  1  0.30997065  0.14964923  0.53947475  1  0.10404  0  0.11358  0.14328  0  1.011986  0
H  H126  1  0.19002427  0.03947802  0.64965559  1  0.103962  0  0.113554  0.143274  0  1.011959  0
H  H127  1  0.19002804  0.46051923  0.85035391  1  0.104179  0  0.113573  0.143297  0  1.011979  0
H  H128  1  0.69002404  0.64965922  0.03947857  1  0.103866  0  0.113581  0.143321  0  1.011951  0
H  H129  1  0.69002368  0.85034597  0.46052030  1  0.103983  0  0.113579  0.143334  0  1.011904  0
H  H130  1  0.80997590  0.96052373  0.35034856  1  0.104082  0  0.113606  0.143344  0  1.01201  0
H  H131  1  0.80998437  0.53947909  0.14965580  1  0.103894  0  0.113546  0.143341  0  1.011988  0
H  H132  1  0.24999582  0.00448059  0.99552805  1  0.605747  0  0.351871  0.428687  0  0.856163  0
H  H133  1  0.25000372  0.49552338  0.50447961  1  0.605579  0  0.351852  0.428697  0  0.856168  0
H  H134  1  0.75000434  0.99552466  0.00447944  1  0.605624  0  0.35182  0.428576  0  0.856301  0
H  H135  1  0.74999586  0.50447488  0.49552318  1  0.605664  0  0.351826  0.428554  0  0.856317  0
H  H136  1  0.11202592  0.02617618  0.07143103  1  0.599483  0  0.355492  0.433703  0  0.847588  0
H  H137  1  0.11203678  0.47381755  0.42857626  1  0.599539  0  0.355425  0.433728  0  0.847615  0
H  H138  1  0.38796604  0.92857787  0.97382161  1  0.599637  0  0.355438  0.433669  0  0.847674  0
H  H139  1  0.38796966  0.57142474  0.52617724  1  0.599634  0  0.35548  0.433656  0  0.847695  0
H  H140  1  0.88796432  0.97381968  0.92858039  1  0.59965  0  0.355372  0.433598  0  0.847679  0
H  H141  1  0.88796980  0.52617864  0.57141742  1  0.59973  0  0.355461  0.433695  0  0.847636  0
H  H142  1  0.61203237  0.07141889  0.02618102  1  0.599653  0  0.355378  0.433537  0  0.847813  0
H  H143  1  0.61203284  0.42857350  0.47382406  1  0.599524  0  0.355445  0.433641  0  0.847713  0
C  C144  1  0.29338219  0.83196445  0.04785654  1  1.573226  0  0.261737  0.629477  0  4.119055  0
C  C145  1  0.29337583  0.66803422  0.45214291  1  1.573027  0  0.261741  0.629473  0  4.118952  0
C  C146  1  0.20661858  0.95214820  0.16804074  1  1.572749  0  0.261724  0.629469  0  4.119135  0
C  C147  1  0.20662638  0.54785281  0.33196283  1  1.573124  0  0.261812  0.62955  0  4.119022  0
C  C148  1  0.70662264  0.16803630  0.95214701  1  1.57313  0  0.261628  0.629206  0  4.119099  0
C  C149  1  0.70662375  0.33196051  0.54785506  1  1.573001  0  0.261775  0.629519  0  4.119086  0
C  C150  1  0.79337342  0.04785454  0.83196401  1  1.57299  0  0.261759  0.629526  0  4.11895  0
C  C151  1  0.79338837  0.45214889  0.66803638  1  1.572929  0  0.261665  0.629246  0  4.119502  0
C  C152  1  0.32919716  0.76488939  0.04398664  1  -0.073826  0  -0.02832  -0.079387  0  4.007015  0
C  C153  1  0.32918460  0.73511313  0.45601347  1  -0.074221  0  -0.028195  -0.079419  0  4.007254  0
C  C154  1  0.17080701  0.95601912  0.23511380  1  -0.07394  0  -0.028284  -0.079472  0  4.007193  0
C  C155  1  0.17080954  0.54398746  0.26488667  1  -0.074107  0  -0.028251  -0.079318  0  4.006988  0
C  C156  1  0.67081117  0.23511383  0.95601619  1  -0.07429  0  -0.028216  -0.079241  0  4.006932  0
C  C157  1  0.67081031  0.26488903  0.54398282  1  -0.074165  0  -0.028304  -0.079457  0  4.007254  0
C  C158  1  0.82919024  0.04398312  0.76488991  1  -0.074407  0  -0.028245  -0.079398  0  4.007243  0
C  C159  1  0.82919763  0.45601225  0.73511183  1  -0.073912  0  -0.028296  -0.07932  0  4.006666  0
C  C160  1  0.40484572  0.75857667  0.06930751  1  -0.021757  0  -0.075949  -0.059488  0  3.984034  0
C  C161  1  0.40483113  0.74142063  0.43069353  1  -0.022262  0  -0.076088  -0.059576  0  3.984245  0
C  C162  1  0.09515636  0.93069781  0.24142737  1  -0.022331  0  -0.075907  -0.059452  0  3.984062  0
C  C163  1  0.09516218  0.56931056  0.25857623  1  -0.021702  0  -0.076037  -0.059675  0  3.984123  0
C  C164  1  0.59516203  0.24142502  0.93069120  1  -0.021732  0  -0.076001  -0.059548  0  3.983993  0
C  C165  1  0.59516144  0.25857558  0.56930212  1  -0.021744  0  -0.075946  -0.059564  0  3.984238  0
C  C166  1  0.90483739  0.06930345  0.75857771  1  -0.021796  0  -0.076115  -0.059793  0  3.984378  0
C  C167  1  0.90484907  0.43068767  0.74142359  1  -0.022542  0  -0.07585  -0.059331  0  3.983682  0
C  C168  1  0.44011807  0.69676144  0.06667061  1  0.026081  0  -0.103227  -0.207411  0  4.00987  0
C  C169  1  0.44010606  0.80323578  0.43333609  1  0.026115  0  -0.103266  -0.207373  0  4.009729  0
C  C170  1  0.05988621  0.93333464  0.30324189  1  0.02664  0  -0.103388  -0.20756  0  4.00985  0
C  C171  1  0.05988797  0.56667336  0.19676144  1  0.026272  0  -0.1033  -0.207376  0  4.009541  0
C  C172  1  0.55989201  0.30324028  0.93333057  1  0.026571  0  -0.103304  -0.207562  0  4.009615  0
C  C173  1  0.55988593  0.19676192  0.56666071  1  0.026501  0  -0.103352  -0.20736  0  4.009606  0
C  C174  1  0.94011045  0.06666415  0.69676392  1  0.026646  0  -0.103224  -0.207253  0  4.009542  0
C  C175  1  0.94012037  0.43332440  0.80324080  1  0.027026  0  -0.103275  -0.20743  0  4.010039  0
C  C176  1  0.39916833  0.64026413  0.03920928  1  0.411761  0  0.088827  0.26988  0  4.037251  0
C  C177  1  0.39915391  0.85973364  0.46078684  1  0.411857  0  0.089079  0.270284  0  4.037201  0
C  C178  1  0.10083909  0.96078758  0.35973953  1  0.411711  0  0.088965  0.27013  0  4.037031  0
C  C179  1  0.10083756  0.53921383  0.14026485  1  0.411963  0  0.088934  0.269962  0  4.037058  0
C  C180  1  0.60084350  0.35973706  0.96078840  1  0.411518  0  0.089082  0.270352  0  4.036735  0
C  C181  1  0.60084159  0.14026408  0.53921095  1  0.411663  0  0.089031  0.270081  0  4.03701  0
C  C182  1  0.89916049  0.03920971  0.64026563  1  0.41151  0  0.089041  0.270153  0  4.037086  0
C  C183  1  0.89916961  0.46078541  0.85973656  1  0.411791  0  0.088879  0.269877  0  4.037278  0
C  C184  1  0.32344509  0.64530610  0.01435185  1  -0.046954  0  -0.112656  -0.226102  0  4.010738  0
C  C185  1  0.32342510  0.85469690  0.48564333  1  -0.047675  0  -0.112826  -0.226474  0  4.010915  0
C  C186  1  0.17656210  0.98564963  0.35470162  1  -0.047014  0  -0.112704  -0.226116  0  4.010453  0
C  C187  1  0.17656134  0.51435299  0.14530240  1  -0.047079  0  -0.112658  -0.22603  0  4.010643  0
C  C188  1  0.67656907  0.35469806  0.98564416  1  -0.047342  0  -0.11271  -0.226275  0  4.010626  0
C  C189  1  0.67656456  0.14530227  0.51435116  1  -0.047298  0  -0.112753  -0.226223  0  4.010718  0
C  C190  1  0.82343690  0.01434916  0.64530517  1  -0.047218  0  -0.112724  -0.226231  0  4.010731  0
C  C191  1  0.82344582  0.48564225  0.85469611  1  -0.046962  0  -0.112699  -0.226166  0  4.010613  0
C  C192  1  0.28925388  0.70792432  0.01637895  1  -0.019442  0  -0.076612  -0.054878  0  3.977722  0
C  C193  1  0.28924183  0.79207536  0.48361959  1  -0.019329  0  -0.076537  -0.054635  0  3.977269  0
C  C194  1  0.21074876  0.98362512  0.29207766  1  -0.019605  0  -0.076585  -0.054792  0  3.977322  0
C  C195  1  0.21075150  0.51637884  0.20792428  1  -0.019538  0  -0.076598  -0.05494  0  3.977401  0
C  C196  1  0.71075503  0.29207490  0.98362048  1  -0.019662  0  -0.076546  -0.054767  0  3.977326  0
C  C197  1  0.71075133  0.20792579  0.51637412  1  -0.019558  0  -0.076577  -0.054691  0  3.977249  0
C  C198  1  0.78924790  0.01637662  0.70792649  1  -0.019045  0  -0.076586  -0.054733  0  3.977206  0
C  C199  1  0.78925800  0.48361740  0.79207533  1  -0.019315  0  -0.076617  -0.054852  0  3.97764  0
C  C200  1  0.50548412  0.47431719  0.63981168  1  1.574945  0  0.265265  0.639085  0  4.111159  0
C  C201  1  0.50547366  0.02568236  0.86019377  1  1.575049  0  0.265222  0.639012  0  4.111045  0
C  C202  1  0.99451886  0.36018829  0.52568085  1  1.574993  0  0.265156  0.638907  0  4.111212  0
C  C203  1  0.99452454  0.13980890  0.97431430  1  1.574958  0  0.265206  0.638954  0  4.110863  0
C  C204  1  0.49451720  0.52568949  0.36018905  1  1.574992  0  0.265125  0.638792  0  4.111207  0
C  C205  1  0.49452008  0.97431890  0.13981132  1  1.575139  0  0.265133  0.638916  0  4.111195  0
C  C206  1  0.00547664  0.63980542  0.47431405  1  1.575001  0  0.265075  0.63874  0  4.111451  0
C  C207  1  0.00548321  0.86018988  0.02569151  1  1.574835  0  0.265201  0.638886  0  4.11154  0
C  C208  1  0.46090383  0.46269359  0.70044704  1  -0.041753  0  -0.025098  -0.072558  0  4.000152  0
C  C209  1  0.46089914  0.03730510  0.79955555  1  -0.042097  0  -0.025246  -0.072897  0  3.999884  0
C  C210  1  0.03909720  0.29955084  0.53730421  1  -0.041938  0  -0.025107  -0.072551  0  3.999942  0
C  C211  1  0.03910358  0.20044530  0.96268836  1  -0.041702  0  -0.025149  -0.072528  0  3.999976  0
C  C212  1  0.53910275  0.53731362  0.29955721  1  -0.041819  0  -0.025176  -0.072446  0  3.999934  0
C  C213  1  0.53909752  0.96269963  0.20044892  1  -0.042089  0  -0.025119  -0.072805  0  4.000032  0
C  C214  1  0.96090121  0.70044287  0.46269069  1  -0.041996  0  -0.025143  -0.072538  0  3.99979  0
C  C215  1  0.96090358  0.79955795  0.03731744  1  -0.041638  0  -0.025151  -0.072262  0  3.999886  0
C  C216  1  0.50076111  0.44512759  0.75640357  1  0.067956  0  -0.076801  -0.060145  0  3.973937  0
C  C217  1  0.50075521  0.05486944  0.74359615  1  0.068354  0  -0.076855  -0.060077  0  3.973662  0
C  C218  1  0.99923949  0.24359378  0.55487150  1  0.068121  0  -0.076814  -0.06024  0  3.973758  0
C  C219  1  0.99924946  0.25640691  0.94512751  1  0.068043  0  -0.076935  -0.06032  0  3.973607  0
C  C220  1  0.49924372  0.55487759  0.24359601  1  0.068028  0  -0.076797  -0.060194  0  3.973774  0
C  C221  1  0.49924320  0.94513477  0.25640580  1  0.068234  0  -0.07688  -0.06016  0  3.973539  0
C  C222  1  0.00075717  0.75640095  0.44512597  1  0.068263  0  -0.076828  -0.060131  0  3.973746  0
C  C223  1  0.00076062  0.74359585  0.05487774  1  0.068028  0  -0.076818  -0.060365  0  3.973788  0
C  C224  1  0.46019205  0.43237873  0.81300181  1  -0.009796  0  -0.105957  -0.215576  0  4.005809  0
C  C225  1  0.46019137  0.06761243  0.68699306  1  -0.010352  0  -0.105943  -0.215597  0  4.005715  0
C  C226  1  0.03980949  0.18699395  0.56762075  1  -0.009834  0  -0.105985  -0.215674  0  4.005784  0
C  C227  1  0.03981784  0.31300777  0.93238427  1  -0.009823  0  -0.1059  -0.215446  0  4.005511  0
C  C228  1  0.53981045  0.56762248  0.18699883  1  -0.009864  0  -0.105953  -0.215549  0  4.00577  0
C  C229  1  0.53981287  0.93238880  0.31300906  1  -0.010315  0  -0.106015  -0.215685  0  4.005764  0
C  C230  1  0.96019009  0.81300280  0.43237990  1  -0.009921  0  -0.10595  -0.215587  0  4.00572  0
C  C231  1  0.96019341  0.68699650  0.06762410  1  -0.009845  0  -0.105968  -0.215448  0  4.005608  0
C  C232  1  0.37878550  0.43751099  0.81336566  1  0.374366  0  0.086794  0.266791  0  4.040081  0
C  C233  1  0.37878485  0.06247949  0.68663007  1  0.373435  0  0.087028  0.267085  0  4.039735  0
C  C234  1  0.12121425  0.18663100  0.56248534  1  0.373346  0  0.08691  0.267071  0  4.039809  0
C  C235  1  0.12122090  0.31336747  0.93752136  1  0.37331  0  0.086902  0.266826  0  4.039727  0
C  C236  1  0.62121466  0.56248425  0.18663385  1  0.373913  0  0.08681  0.26677  0  4.039723  0
C  C237  1  0.62121590  0.93751875  0.31337025  1  0.373326  0  0.087081  0.267183  0  4.039906  0
C  C238  1  0.87878649  0.81336677  0.43751739  1  0.373812  0  0.08689  0.26693  0  4.039765  0
C  C239  1  0.87878744  0.68663382  0.06248719  1  0.373861  0  0.086853  0.266672  0  4.039837  0
C  C240  1  0.33811838  0.45572132  0.75844195  1  0.062551  0  -0.101184  -0.203435  0  3.99817  0
C  C241  1  0.33811486  0.04427178  0.74155280  1  0.062948  0  -0.10123  -0.203674  0  3.998726  0
C  C242  1  0.16188373  0.24155392  0.54427448  1  0.063128  0  -0.101255  -0.203809  0  3.998649  0
C  C243  1  0.16189086  0.25844087  0.95572667  1  0.062872  0  -0.101129  -0.203426  0  3.998382  0
C  C244  1  0.66188528  0.54427743  0.24156040  1  0.062464  0  -0.101139  -0.203472  0  3.998139  0
C  C245  1  0.66188414  0.95572793  0.25844620  1  0.062951  0  -0.10121  -0.203709  0  3.99881  0
C  C246  1  0.83811585  0.75844284  0.45572716  1  0.062338  0  -0.101167  -0.203502  0  3.998434  0
C  C247  1  0.83811863  0.74155892  0.04427974  1  0.062483  0  -0.101242  -0.203367  0  3.998188  0
C  C248  1  0.37938234  0.46810508  0.70203770  1  -0.037623  0  -0.07802  -0.063787  0  3.990045  0
C  C249  1  0.37937534  0.03189383  0.79795695  1  -0.037562  0  -0.077878  -0.063371  0  3.989965  0
C  C250  1  0.12061866  0.29795557  0.53189420  1  -0.03783  0  -0.077889  -0.063419  0  3.989857  0
C  C251  1  0.12062741  0.20203731  0.96810005  1  -0.03753  0  -0.078016  -0.063755  0  3.99013  0
C  C252  1  0.62062249  0.53189913  0.29796424  1  -0.037673  0  -0.077926  -0.063695  0  3.990068  0
C  C253  1  0.62062191  0.96811089  0.20204653  1  -0.037747  0  -0.077844  -0.06323  0  3.989821  0
C  C254  1  0.87937684  0.70204014  0.46810239  1  -0.037425  0  -0.077964  -0.063639  0  3.989979  0
C  C255  1  0.87938150  0.79796493  0.03190416  1  -0.037769  0  -0.077912  -0.06386  0  3.989983  0
C  C256  1  0.39409398  0.10481819  0.06350755  1  1.562154  0  0.26185  0.637095  0  4.110954  0
C  C257  1  0.39409837  0.39518433  0.43648777  1  1.562023  0  0.261995  0.637462  0  4.110694  0
C  C258  1  0.10589440  0.93649088  0.89518758  1  1.562041  0  0.262027  0.637348  0  4.110844  0
C  C259  1  0.10589356  0.56350533  0.60481462  1  1.561625  0  0.261966  0.637343  0  4.110609  0
C  C260  1  0.60588810  0.89518507  0.93649874  1  1.561575  0  0.261908  0.63724  0  4.110717  0
C  C261  1  0.60589712  0.60481436  0.56350815  1  1.561893  0  0.261958  0.637218  0  4.110871  0
C  C262  1  0.89411276  0.06350639  0.10481609  1  1.561453  0  0.261908  0.637167  0  4.110808  0
C  C263  1  0.89409902  0.43648891  0.39518379  1  1.561895  0  0.261819  0.637076  0  4.111055  0
C  C264  1  0.37729730  0.17736036  0.07136334  1  -0.020055  0  -0.026259  -0.076667  0  4.001541  0
C  C265  1  0.37731314  0.32264525  0.42863713  1  -0.019291  0  -0.026239  -0.076796  0  4.001851  0
C  C266  1  0.12268767  0.92863959  0.82264839  1  -0.019463  0  -0.026243  -0.076842  0  4.001784  0
C  C267  1  0.12268513  0.57136456  0.67735822  1  -0.019559  0  -0.026229  -0.076825  0  4.001773  0
C  C268  1  0.62268419  0.82264085  0.92863680  1  -0.019135  0  -0.026212  -0.076851  0  4.00188  0
C  C269  1  0.62268644  0.67735347  0.57136225  1  -0.019047  0  -0.026277  -0.076818  0  4.001731  0
C  C270  1  0.87731658  0.07135914  0.17735148  1  -0.019067  0  -0.026198  -0.076777  0  4.001964  0
C  C271  1  0.87730337  0.42863067  0.32263930  1  -0.019783  0  -0.026257  -0.076666  0  4.00155  0
C  C272  1  0.43157879  0.22233753  0.05026649  1  0.008952  0  -0.079226  -0.059544  0  3.978852  0
C  C273  1  0.43159043  0.27766488  0.44973154  1  0.009114  0  -0.079204  -0.059772  0  3.979275  0
C  C274  1  0.06840625  0.94973756  0.77766693  1  0.008607  0  -0.079311  -0.059866  0  3.979373  0
C  C275  1  0.06840485  0.55027021  0.72233527  1  0.008315  0  -0.079241  -0.05974  0  3.979377  0
C  C276  1  0.56840270  0.77766366  0.94973168  1  0.008257  0  -0.079259  -0.059617  0  3.979385  0
C  C277  1  0.56840799  0.72233132  0.55026412  1  0.008289  0  -0.079305  -0.059788  0  3.97925  0
C  C278  1  0.93159683  0.05026166  0.22233250  1  0.008293  0  -0.079225  -0.059656  0  3.979158  0
C  C279  1  0.93158365  0.44972799  0.27766159  1  0.009168  0  -0.079172  -0.059539  0  3.979041  0
C  C280  1  0.41544668  0.29002618  0.05664538  1  -0.0615  0  -0.106835  -0.216061  0  4.008193  0
C  C281  1  0.41545224  0.20997729  0.44335364  1  -0.06083  0  -0.106772  -0.215984  0  4.008392  0
C  C282  1  0.08454431  0.94336071  0.70998094  1  -0.060441  0  -0.10671  -0.21596  0  4.008343  0
C  C283  1  0.08454001  0.55665049  0.79002223  1  -0.060955  0  -0.106707  -0.215952  0  4.008325  0
C  C284  1  0.58453773  0.70997644  0.94334702  1  -0.060931  0  -0.106692  -0.216093  0  4.008368  0
C  C285  1  0.58454268  0.79002091  0.55664321  1  -0.060399  0  -0.106779  -0.216067  0  4.008429  0
C  C286  1  0.91545877  0.05663903  0.29002102  1  -0.060505  0  -0.106768  -0.216134  0  4.008367  0
C  C287  1  0.91545257  0.44334870  0.20997474  1  -0.0616  0  -0.106779  -0.216122  0  4.008289  0
C  C288  1  0.34401611  0.31286330  0.08396766  1  0.40885  0  0.088891  0.268069  0  4.043474  0
C  C289  1  0.34402155  0.18714493  0.41603385  1  0.40821  0  0.089023  0.268149  0  4.043362  0
C  C290  1  0.15597608  0.91603557  0.68714677  1  0.408587  0  0.088864  0.267981  0  4.043382  0
C  C291  1  0.15597299  0.58396944  0.81285967  1  0.40894  0  0.088828  0.267991  0  4.04338  0
C  C292  1  0.65597122  0.68713937  0.91602868  1  0.408986  0  0.088869  0.268042  0  4.043384  0
C  C293  1  0.65597278  0.81285475  0.58396217  1  0.408512  0  0.088954  0.268057  0  4.043319  0
C  C294  1  0.84402817  0.08396367  0.31285465  1  0.408633  0  0.088925  0.268145  0  4.043321  0
C  C295  1  0.84402134  0.41602775  0.18713609  1  0.408877  0  0.088858  0.268122  0  4.043428  0
C  C296  1  0.28943939  0.26891745  0.10580743  1  -0.077781  0  -0.099325  -0.203309  0  4.003631  0
C  C297  1  0.28944437  0.23109000  0.39419610  1  -0.077826  0  -0.099441  -0.203434  0  4.003853  0
C  C298  1  0.21054863  0.89419539  0.73109085  1  -0.077969  0  -0.09952  -0.203643  0  4.003911  0
C  C299  1  0.21054909  0.60580838  0.76891039  1  -0.07781  0  -0.099388  -0.203398  0  4.003938  0
C  C300  1  0.71054735  0.73109218  0.89419015  1  -0.077433  0  -0.099495  -0.203532  0  4.003717  0
C  C301  1  0.71055346  0.76890921  0.60580333  1  -0.077888  0  -0.099483  -0.203498  0  4.003909  0
C  C302  1  0.78945211  0.10580430  0.26890617  1  -0.077873  0  -0.099493  -0.203648  0  4.003858  0
C  C303  1  0.78944524  0.39418880  0.23108339  1  -0.077702  0  -0.099396  -0.203385  0  4.003526  0
C  C304  1  0.30645019  0.20131974  0.09948618  1  0.007448  0  -0.077606  -0.063323  0  3.983791  0
C  C305  1  0.30646299  0.29868710  0.40051247  1  0.007604  0  -0.077547  -0.063061  0  3.983636  0
C  C306  1  0.19353306  0.90051726  0.79868948  1  0.00778  0  -0.077506  -0.062928  0  3.983553  0
C  C307  1  0.19353408  0.59948809  0.70131478  1  0.008045  0  -0.077541  -0.06301  0  3.983758  0
C  C308  1  0.69353305  0.79868893  0.90051476  1  0.007474  0  -0.077546  -0.063043  0  3.983785  0
C  C309  1  0.69353484  0.70131258  0.59948405  1  0.00761  0  -0.077564  -0.063088  0  3.983679  0
C  C310  1  0.80647119  0.09948145  0.20130941  1  0.007519  0  -0.077586  -0.063083  0  3.983752  0
C  C311  1  0.80645383  0.40050811  0.29868088  1  0.00717  0  -0.077574  -0.063179  0  3.983545  0
C  C312  1  0.39004604  0.50303463  0.94982454  1  -0.019462  0  -0.113434  -0.336594  0  3.968503  0
C  C313  1  0.39003744  0.99696146  0.55016820  1  -0.01941  0  -0.113359  -0.336689  0  3.968707  0
C  C314  1  0.10996009  0.05017043  0.49696619  1  -0.019389  0  -0.113362  -0.336376  0  3.968566  0
C  C315  1  0.10995949  0.44983223  0.00304008  1  -0.019287  0  -0.113313  -0.336531  0  3.968559  0
C  C316  1  0.60996112  0.49696752  0.05016978  1  -0.019209  0  -0.113332  -0.336407  0  3.968342  0
C  C317  1  0.60995689  0.00303425  0.44982839  1  -0.019377  0  -0.113366  -0.336466  0  3.968616  0
C  C318  1  0.89004416  0.94982783  0.50303660  1  -0.019455  0  -0.11336  -0.336589  0  3.968706  0
C  C319  1  0.89004475  0.55017104  0.99696720  1  -0.01943  0  -0.113444  -0.336671  0  3.96854  0
C  C320  1  0.40217279  0.52143910  0.01750832  1  0.453334  0  0.084696  0.298381  0  4.07027  0
C  C321  1  0.40216195  0.97855811  0.48248331  1  0.453053  0  0.084659  0.298497  0  4.070249  0
C  C322  1  0.09783188  0.98248614  0.47856480  1  0.453285  0  0.084653  0.298346  0  4.070319  0
C  C323  1  0.09783344  0.51751726  0.02143928  1  0.453156  0  0.084605  0.298342  0  4.070212  0
C  C324  1  0.59783671  0.47856206  0.98248638  1  0.453433  0  0.084634  0.298409  0  4.070269  0
C  C325  1  0.59783121  0.02143859  0.51751240  1  0.453307  0  0.084684  0.298256  0  4.070307  0
C  C326  1  0.90216887  0.01751262  0.52143804  1  0.453213  0  0.084681  0.298314  0  4.070287  0
C  C327  1  0.90217198  0.48248544  0.97856053  1  0.453667  0  0.084707  0.298347  0  4.070204  0
C  C328  1  0.38247804  0.48047625  0.06568200  1  0.102995  0  -0.112578  -0.327123  0  3.949233  0
C  C329  1  0.38246831  0.01952131  0.43430926  1  0.103017  0  -0.112633  -0.327093  0  3.949005  0
C  C330  1  0.11752731  0.93431255  0.51952545  1  0.103251  0  -0.11261  -0.327021  0  3.949239  0
C  C331  1  0.11752883  0.56569156  0.98047570  1  0.103134  0  -0.112489  -0.326774  0  3.949079  0
C  C332  1  0.61753146  0.51952491  0.93431320  1  0.102513  0  -0.112714  -0.327201  0  3.949196  0
C  C333  1  0.61752486  0.98047688  0.56568612  1  0.103  0  -0.112701  -0.327145  0  3.949231  0
C  C334  1  0.88247402  0.06568719  0.48047651  1  0.103045  0  -0.112699  -0.327051  0  3.949114  0
C  C335  1  0.88247250  0.43431062  0.01952158  1  0.102622  0  -0.112643  -0.326875  0  3.948933  0
C  C336  1  0.34964537  0.41862064  0.04450982  1  0.397479  0  0.087015  0.299107  0  4.073206  0
C  C337  1  0.34963955  0.08138057  0.45548655  1  0.397577  0  0.087023  0.298986  0  4.073319  0
C  C338  1  0.15035855  0.95549078  0.58138356  1  0.397177  0  0.086928  0.298862  0  4.073572  0
C  C339  1  0.15035727  0.54451173  0.91861862  1  0.39726  0  0.086921  0.298831  0  4.073469  0
C  C340  1  0.65036005  0.58138405  0.95549021  1  0.397778  0  0.086975  0.298903  0  4.073474  0
C  C341  1  0.65035419  0.91861810  0.54450691  1  0.397238  0  0.087077  0.298994  0  4.073213  0
C  C342  1  0.84964337  0.04450896  0.41861840  1  0.397334  0  0.087011  0.298877  0  4.073364  0
C  C343  1  0.84964348  0.45548847  0.08137944  1  0.397641  0  0.086981  0.298914  0  4.073318  0
C  C344  1  0.33663703  0.39805768  0.97726063  1  -0.028085  0  -0.114229  -0.332735  0  3.972297  0
C  C345  1  0.33663460  0.10193841  0.52273442  1  -0.02765  0  -0.114178  -0.332489  0  3.972162  0
C  C346  1  0.16336487  0.02273740  0.60194335  1  -0.028282  0  -0.114116  -0.332462  0  3.972216  0
C  C347  1  0.16336317  0.47726240  0.89806329  1  -0.027719  0  -0.114224  -0.332608  0  3.972192  0
C  C348  1  0.66336664  0.60194502  0.02273868  1  -0.027996  0  -0.114164  -0.33254  0  3.972218  0
C  C349  1  0.66336498  0.89805877  0.47725936  1  -0.028107  0  -0.1142  -0.332654  0  3.972343  0
C  C350  1  0.83663704  0.97726137  0.39806098  1  -0.027936  0  -0.114216  -0.332629  0  3.972438  0
C  C351  1  0.83663700  0.52273786  0.10194169  1  -0.028001  0  -0.114184  -0.332697  0  3.972287  0
C  C352  1  0.35629269  0.44084352  0.93069676  1  0.470107  0  0.09027  0.306049  0  4.057321  0
C  C353  1  0.35629154  0.05915053  0.56930019  1  0.469873  0  0.090081  0.30573  0  4.0577  0
C  C354  1  0.14370619  0.06930139  0.55915428  1  0.470432  0  0.0901  0.305665  0  4.057479  0
C  C355  1  0.14371041  0.43069849  0.94085273  1  0.469456  0  0.090164  0.305773  0  4.057496  0
C  C356  1  0.64370922  0.55915820  0.06930443  1  0.469776  0  0.090217  0.30582  0  4.057291  0
C  C357  1  0.64370979  0.94084767  0.43069667  1  0.469927  0  0.090207  0.305906  0  4.057565  0
C  C358  1  0.85629281  0.93069738  0.44084906  1  0.469727  0  0.090207  0.30598  0  4.057398  0
C  C359  1  0.85629092  0.56930229  0.05915478  1  0.47004  0  0.09024  0.305983  0  4.057207  0
O  O360  1  0.22928776  0.83889635  0.01721825  1  -1.248647  0  -0.239099  -0.58614  0  2.313774  0
O  O361  1  0.22928348  0.66110015  0.48278894  1  -1.248648  0  -0.239148  -0.5862  0  2.313657  0
O  O362  1  0.27071680  0.98278568  0.16110904  1  -1.248461  0  -0.239177  -0.58618  0  2.313687  0
O  O363  1  0.27071435  0.51721463  0.33889735  1  -1.248825  0  -0.239132  -0.586148  0  2.314119  0
O  O364  1  0.77071649  0.16110194  0.98278751  1  -1.248848  0  -0.239087  -0.586076  0  2.313817  0
O  O365  1  0.77071260  0.33889760  0.51721232  1  -1.248775  0  -0.23909  -0.586169  0  2.313887  0
O  O366  1  0.72928278  0.01720963  0.83889738  1  -1.248759  0  -0.239105  -0.586199  0  2.313772  0
O  O367  1  0.72929164  0.48278709  0.66110433  1  -1.248569  0  -0.239174  -0.58613  0  2.313945  0
O  O368  1  0.33054828  0.87860607  0.08225641  1  -1.267661  0  -0.240124  -0.606634  0  2.382703  0
O  O369  1  0.33054829  0.62139651  0.41774963  1  -1.267191  0  -0.240037  -0.606571  0  2.382804  0
O  O370  1  0.16944713  0.91775603  0.12139949  1  -1.266995  0  -0.240044  -0.606579  0  2.382785  0
O  O371  1  0.16945051  0.58225060  0.37860541  1  -1.267357  0  -0.240131  -0.606709  0  2.382509  0
O  O372  1  0.66944546  0.12139773  0.91775437  1  -1.267033  0  -0.240011  -0.606498  0  2.382709  0
O  O373  1  0.66945245  0.37860326  0.58225529  1  -1.267436  0  -0.240109  -0.606643  0  2.382596  0
O  O374  1  0.83054369  0.08225366  0.87860452  1  -1.267379  0  -0.240076  -0.606621  0  2.382642  0
O  O375  1  0.83055257  0.41775259  0.62139346  1  -1.267066  0  -0.240037  -0.606532  0  2.382906  0
O  O376  1  0.46671269  0.48445810  0.58813212  1  -1.268122  0  -0.241977  -0.602858  0  2.3384  0
O  O377  1  0.46670453  0.01553808  0.91186974  1  -1.268548  0  -0.241903  -0.602623  0  2.338488  0
O  O378  1  0.03329605  0.41186644  0.51553836  1  -1.268268  0  -0.24194  -0.60275  0  2.338197  0
O  O379  1  0.03329281  0.08813073  0.98445526  1  -1.268341  0  -0.241874  -0.602633  0  2.338568  0
O  O380  1  0.53329039  0.51554314  0.41187148  1  -1.268297  0  -0.241965  -0.602815  0  2.338055  0
O  O381  1  0.53329272  0.98446117  0.08813266  1  -1.268245  0  -0.241893  -0.602707  0  2.338291  0
O  O382  1  0.96670411  0.58812677  0.48445549  1  -1.268548  0  -0.241937  -0.602605  0  2.338476  0
O  O383  1  0.96671261  0.91186950  0.01554626  1  -1.268164  0  -0.24203  -0.602882  0  2.338515  0
O  O384  1  0.57955958  0.47313464  0.64441582  1  -1.262102  0  -0.232432  -0.588505  0  2.367887  0
O  O385  1  0.57954614  0.02686664  0.85559031  1  -1.261585  0  -0.232416  -0.588541  0  2.36767  0
O  O386  1  0.92044987  0.35558842  0.52685827  1  -1.261782  0  -0.232301  -0.588447  0  2.368033  0
O  O387  1  0.92044851  0.14441447  0.97313354  1  -1.261716  0  -0.232478  -0.588619  0  2.36744  0
O  O388  1  0.42044934  0.52687253  0.35558398  1  -1.26181  0  -0.232306  -0.588341  0  2.368142  0
O  O389  1  0.42044877  0.97314155  0.14441206  1  -1.261752  0  -0.232335  -0.588418  0  2.367962  0
O  O390  1  0.07954680  0.64440578  0.47313668  1  -1.26183  0  -0.232254  -0.588398  0  2.367996  0
O  O391  1  0.07955457  0.85558679  0.02687105  1  -1.261967  0  -0.232349  -0.588408  0  2.368071  0
O  O392  1  0.34259555  0.06721652  0.08529009  1  -1.264868  0  -0.239402  -0.598666  0  2.344321  0
O  O393  1  0.34261119  0.43278825  0.41471302  1  -1.265117  0  -0.239388  -0.59863  0  2.34464  0
O  O394  1  0.15738920  0.91471009  0.93278894  1  -1.26509  0  -0.239382  -0.598614  0  2.344449  0
O  O395  1  0.15739313  0.58528494  0.56721299  1  -1.26499  0  -0.23934  -0.598618  0  2.344302  0
O  O396  1  0.65739294  0.93278624  0.91471614  1  -1.264821  0  -0.239352  -0.598604  0  2.344084  0
O  O397  1  0.65739423  0.56721048  0.58528785  1  -1.264976  0  -0.239354  -0.598553  0  2.344501  0
O  O398  1  0.84260921  0.08528665  0.06721073  1  -1.264854  0  -0.239377  -0.598607  0  2.34401  0
O  O399  1  0.84259770  0.41471226  0.43278327  1  -1.26477  0  -0.239397  -0.598656  0  2.344485  0
O  O400  1  0.45816425  0.08551172  0.03549703  1  -1.264702  0  -0.240428  -0.599086  0  2.338495  0
O  O401  1  0.45817929  0.41448913  0.46450298  1  -1.264569  0  -0.240642  -0.599489  0  2.338  0
O  O402  1  0.04181823  0.96449992  0.91448936  1  -1.26481  0  -0.240638  -0.599334  0  2.33843  0
O  O403  1  0.04182321  0.53549102  0.58550839  1  -1.264254  0  -0.240675  -0.599397  0  2.3383  0
O  O404  1  0.54182250  0.91448906  0.96450949  1  -1.264428  0  -0.240635  -0.599273  0  2.338523  0
O  O405  1  0.54182437  0.58550811  0.53549772  1  -1.264617  0  -0.240601  -0.59928  0  2.33835  0
O  O406  1  0.95818251  0.03549979  0.08550914  1  -1.264386  0  -0.240546  -0.599191  0  2.338468  0
O  O407  1  0.95817287  0.46449823  0.41448751  1  -1.264529  0  -0.240488  -0.599182  0  2.338512  0
O  O408  1  0.25000647  0.97253352  0.02745782  1  -1.423611  0  -0.452939  -1.006953  0  2.225148  0
O  O409  1  0.24999589  0.52745680  0.47253452  1  -1.42345  0  -0.452946  -1.00701  0  2.225046  0
O  O410  1  0.74999719  0.02746470  0.97254101  1  -1.4235  0  -0.452913  -1.006894  0  2.225118  0
O  O411  1  0.75000369  0.47253945  0.52746509  1  -1.423547  0  -0.452904  -1.006844  0  2.225209  0
O  O412  1  0.09515231  0.98941561  0.03988594  1  -1.407704  0  -0.451861  -1.005445  0  2.216627  0
O  O413  1  0.09514930  0.51058521  0.46010747  1  -1.407675  0  -0.451824  -1.005575  0  2.216711  0
O  O414  1  0.40484951  0.96011113  0.01058942  1  -1.40784  0  -0.451821  -1.00548  0  2.216833  0
O  O415  1  0.40485126  0.53988767  0.48941327  1  -1.407829  0  -0.451841  -1.005422  0  2.216747  0
O  O416  1  0.90485077  0.01058805  0.96011051  1  -1.407806  0  -0.451758  -1.005389  0  2.216712  0
O  O417  1  0.90485145  0.48940900  0.53988748  1  -1.407991  0  -0.451843  -1.005495  0  2.216701  0
O  O418  1  0.59514423  0.03989157  0.98941039  1  -1.407934  0  -0.451767  -1.005302  0  2.216801  0
O  O419  1  0.59514948  0.46010909  0.51058837  1  -1.407671  0  -0.451854  -1.005466  0  2.216778  0
O  O420  1  0.43913983  0.58116018  0.03943074  1  -1.100638  0  -0.153221  -0.225168  0  2.584066  0
O  O421  1  0.43912856  0.91883692  0.46056261  1  -1.10068  0  -0.153263  -0.225334  0  2.584245  0
O  O422  1  0.06086104  0.96056856  0.41884167  1  -1.100765  0  -0.15325  -0.225389  0  2.583963  0
O  O423  1  0.06086362  0.53943692  0.08115893  1  -1.100711  0  -0.15326  -0.225386  0  2.58395  0
O  O424  1  0.56086792  0.41884200  0.96056654  1  -1.100781  0  -0.153337  -0.225493  0  2.583955  0
O  O425  1  0.56086460  0.08116273  0.53942996  1  -1.100693  0  -0.153323  -0.225258  0  2.584009  0
O  O426  1  0.93913445  0.03943419  0.58116358  1  -1.100494  0  -0.153346  -0.225346  0  2.584041  0
O  O427  1  0.93914296  0.46056828  0.91884263  1  -1.100761  0  -0.153295  -0.225298  0  2.584198  0
O  O428  1  0.33468361  0.42008814  0.86588123  1  -1.098701  0  -0.149786  -0.211128  0  2.565257  0
O  O429  1  0.33467945  0.07990744  0.63411178  1  -1.098268  0  -0.149774  -0.211057  0  2.565169  0
O  O430  1  0.16532310  0.13411224  0.57990895  1  -1.098404  0  -0.149781  -0.211101  0  2.565178  0
O  O431  1  0.16533043  0.36588757  0.92009918  1  -1.098113  0  -0.149839  -0.211006  0  2.565145  0
O  O432  1  0.66532122  0.57991107  0.13411721  1  -1.098185  0  -0.149815  -0.211047  0  2.565117  0
O  O433  1  0.66532772  0.92009524  0.36588605  1  -1.098198  0  -0.149875  -0.211146  0  2.565247  0
O  O434  1  0.83467648  0.86588402  0.42009264  1  -1.097996  0  -0.149777  -0.211101  0  2.565062  0
O  O435  1  0.83468024  0.63411670  0.07990919  1  -1.098086  0  -0.149779  -0.21103  0  2.565064  0
O  O436  1  0.32603388  0.37998070  0.09301159  1  -1.097323  0  -0.155291  -0.217218  0  2.524887  0
O  O437  1  0.32603263  0.12002558  0.40698762  1  -1.097372  0  -0.155379  -0.217202  0  2.524669  0
O  O438  1  0.17396370  0.90698902  0.62002831  1  -1.09702  0  -0.155271  -0.217033  0  2.524649  0
O  O439  1  0.17396586  0.59301242  0.87997441  1  -1.096971  0  -0.155286  -0.217065  0  2.524851  0
O  O440  1  0.67396570  0.62002497  0.90698755  1  -1.097022  0  -0.155255  -0.217022  0  2.52492  0
O  O441  1  0.67396287  0.87997260  0.59300726  1  -1.097042  0  -0.155401  -0.217135  0  2.524492  0
O  O442  1  0.82603763  0.09300920  0.37997102  1  -1.09706  0  -0.155332  -0.217094  0  2.524665  0
O  O443  1  0.82603605  0.40698525  0.12001893  1  -1.097421  0  -0.155233  -0.21713  0  2.524917  0
