# generated using pymatgen
data_NiH15C18(N4O3)2
_symmetry_space_group_name_H-M   'P 1'
_cell_length_a   14.80836687
_cell_length_b   16.40516682
_cell_length_c   19.72320624
_cell_angle_alpha   98.31908680
_cell_angle_beta   90.00016839
_cell_angle_gamma   90.00005842
_symmetry_Int_Tables_number   1
_chemical_formula_structural   NiH15C18(N4O3)2
_chemical_formula_sum   'Ni8 H120 C144 N64 O48'
_cell_volume   4741.01488884
_cell_formula_units_Z   8
loop_
 _symmetry_equiv_pos_site_id
 _symmetry_equiv_pos_as_xyz
  1  'x, y, z'
loop_
 _atom_site_type_symbol
 _atom_site_label
 _atom_site_symmetry_multiplicity
 _atom_site_fract_x
 _atom_site_fract_y
 _atom_site_fract_z
 _atom_site_occupancy
 _atom_site_pbe_bader_charge
 _atom_site_pbe_bader_spin_density
 _atom_site_pbe_cm5_charge
 _atom_site_pbe_ddec_charge
 _atom_site_pbe_ddec_spin_density
 _atom_site_pbe_ddec_sum_bond_order
 _atom_site_pbe_magmom
Ni  Ni0  1  0.74306636  0.87968206  0.75545441  1  1.114695  1.518602  0.645122  0.609311  1.751219  2.603631  1.502
Ni  Ni1  1  0.74463377  0.37564317  0.24101636  1  1.120433  1.514985  0.642652  0.608483  1.748244  2.595605  1.499
Ni  Ni2  1  0.24306816  0.12032526  0.74454513  1  1.11483  1.518615  0.645062  0.609308  1.751205  2.603681  1.502
Ni  Ni3  1  0.24463418  0.62435546  0.25898194  1  1.120524  1.514985  0.642667  0.608611  1.748243  2.595547  1.499
Ni  Ni4  1  0.25693300  0.12032154  0.24454384  1  1.11474  1.518616  0.645084  0.609292  1.751215  2.603638  1.502
Ni  Ni5  1  0.25536693  0.62435180  0.75898287  1  1.120462  1.514974  0.642741  0.608648  1.748232  2.595327  1.499
Ni  Ni6  1  0.75693389  0.87967958  0.25545225  1  1.114721  1.518606  0.645088  0.609266  1.751218  2.603822  1.502
Ni  Ni7  1  0.75536585  0.37564197  0.74101760  1  1.120399  1.514979  0.64269  0.608572  1.748237  2.595441  1.499
H  H8  1  0.75470843  0.01203195  0.66368324  1  0.14518  0.002119  0.120218  0.102413  0.000784  1.033906  0.002
H  H9  1  0.76857129  0.01584669  0.53738125  1  0.113018  0.001144  0.113489  0.124741  0.000587  1.005483  0.001
H  H10  1  0.77710059  0.88202287  0.45750893  1  0.165853  0.000241  0.112692  0.131239  5.6e-05  1.021947  0.0
H  H11  1  0.76562694  0.75628365  0.63467284  1  0.1379  0.002373  0.125226  0.106794  0.000852  1.021672  0.002
H  H12  1  0.79626396  0.72773246  0.44291771  1  0.134428  0.000727  0.113556  0.086169  0.000433  1.045521  0.0
H  H13  1  0.80491255  0.53094870  0.55149571  1  0.126713  0.000639  0.112893  0.087742  0.000372  1.047278  0.0
H  H14  1  0.77611000  0.24400955  0.33093037  1  0.187854  0.00206  0.119981  0.102037  0.000766  1.036376  0.002
H  H15  1  0.79026103  0.24103513  0.45718349  1  0.143751  0.001061  0.114062  0.124655  0.000551  0.998151  0.001
H  H16  1  0.79574195  0.37545020  0.53675899  1  0.139001  0.00027  0.111522  0.128037  0.000103  1.017613  0.0
H  H17  1  0.78626324  0.49976889  0.35849719  1  0.158534  0.002303  0.125737  0.109251  0.000818  1.013406  0.002
H  H18  1  0.91440512  0.82308429  0.67843139  1  0.110394  0.001796  0.118047  0.086441  0.000636  1.008133  0.001
H  H19  1  0.07984116  0.81763979  0.70224402  1  0.118125  0.000914  0.109536  0.118803  0.000423  1.010499  0.0
H  H20  1  0.13661878  0.87367437  0.81944801  1  0.165274  0.0  0.108387  0.113835  -9.2e-05  1.043687  0.0
H  H21  1  0.86061909  0.93950824  0.87529417  1  0.149195  0.00202  0.119432  0.091326  0.000712  1.038392  0.002
H  H22  1  0.10360123  0.93404013  0.93915890  1  0.094056  0.000517  0.118274  0.086452  0.000238  0.995259  0.0
H  H23  1  0.57287869  0.33119093  0.17386329  1  0.143718  0.001805  0.118077  0.096185  0.000642  1.023497  0.001
H  H24  1  0.40718863  0.33187395  0.19956948  1  0.139317  0.000785  0.109141  0.117678  0.000324  1.0274  0.0
H  H25  1  0.35409458  0.38143230  0.31890736  1  0.151848  0.000128  0.109949  0.115533  3.7e-05  1.025027  0.0
H  H26  1  0.63095644  0.44123743  0.37206595  1  0.123317  0.001962  0.117011  0.083181  0.000666  1.051961  0.001
H  H27  1  0.39119617  0.44197117  0.43902603  1  0.135709  0.000455  0.11622  0.085159  0.000184  1.003123  0.0
H  H28  1  0.58428808  0.92799261  0.84572826  1  0.153381  0.001815  0.118973  0.094355  0.000659  1.016482  0.001
H  H29  1  0.41543420  0.93295391  0.83605027  1  0.084537  0.000968  0.109664  0.118755  0.00042  1.007607  0.001
H  H30  1  0.34212066  0.87879839  0.72403419  1  0.110409  0.000121  0.109484  0.115321  7.8e-05  1.035737  0.0
H  H31  1  0.60751841  0.81492105  0.64422023  1  0.130838  0.001902  0.11577  0.078062  0.00062  1.057684  0.001
H  H32  1  0.36294577  0.82188761  0.59649369  1  0.13457  0.000427  0.118548  0.090894  0.000182  1.008693  0.0
H  H33  1  0.57450086  0.69728008  0.47498468  1  0.08003  0.000469  0.115091  0.078834  0.000202  1.006825  0.0
H  H34  1  0.42756509  0.58063618  0.20199042  1  0.086359  0.00189  0.118005  0.086742  0.000711  1.008812  0.001
H  H35  1  0.58860656  0.58983208  0.23986727  1  0.112178  0.000849  0.108503  0.118461  0.000357  1.035952  0.0
H  H36  1  0.62321024  0.64224986  0.36271385  1  0.152595  -1.2e-05  0.112376  0.11804  -0.000131  1.022562  0.0
H  H37  1  0.33666894  0.68229986  0.39478718  1  0.145873  0.001991  0.121596  0.095583  0.000695  1.022417  0.002
H  H38  1  0.25471158  0.98797291  0.83631502  1  0.145496  0.002118  0.120263  0.102483  0.000784  1.033862  0.002
H  H39  1  0.26857763  0.98415265  0.96261637  1  0.113042  0.001144  0.113485  0.124723  0.000587  1.005475  0.001
H  H40  1  0.27710836  0.11797396  0.04249125  1  0.165858  0.000241  0.11268  0.131236  5.6e-05  1.02199  0.0
H  H41  1  0.26563004  0.24372185  0.86533261  1  0.138006  0.002373  0.125178  0.106746  0.000852  1.021675  0.002
H  H42  1  0.29626994  0.27226871  0.05708709  1  0.134521  0.000727  0.113561  0.086173  0.000433  1.045399  0.0
H  H43  1  0.30491150  0.46904884  0.94850735  1  0.12684  0.000638  0.112928  0.087829  0.000372  1.04727  0.0
H  H44  1  0.27610548  0.75599098  0.16906721  1  0.187838  0.002061  0.119976  0.102029  0.000766  1.036342  0.002
H  H45  1  0.29025939  0.75896294  0.04281332  1  0.143818  0.001061  0.11407  0.124646  0.000551  0.998152  0.001
H  H46  1  0.29573842  0.62454671  0.96324042  1  0.138999  0.00027  0.111566  0.128109  0.000103  1.017523  0.0
H  H47  1  0.28625832  0.50022980  0.14150476  1  0.158549  0.002303  0.12572  0.109241  0.000818  1.013395  0.002
H  H48  1  0.41440797  0.17692202  0.82156233  1  0.110329  0.001795  0.118033  0.0864  0.000636  1.008045  0.001
H  H49  1  0.57984345  0.18236977  0.79774680  1  0.117558  0.000915  0.109526  0.118792  0.000423  1.01051  0.0
H  H50  1  0.63661785  0.12632787  0.68054561  1  0.165297  0.0  0.108472  0.113916  -9.2e-05  1.0439  0.0
H  H51  1  0.36061968  0.06049123  0.62470113  1  0.149238  0.00202  0.119416  0.091289  0.000712  1.038418  0.002
H  H52  1  0.60360382  0.06596023  0.56083847  1  0.093957  0.000518  0.118271  0.086436  0.000238  0.995239  0.0
H  H53  1  0.07288616  0.66881056  0.32613751  1  0.143548  0.001805  0.118061  0.096153  0.000642  1.023689  0.001
H  H54  1  0.90719418  0.66812798  0.30043971  1  0.139147  0.000785  0.109159  0.117657  0.000324  1.027307  0.0
H  H55  1  0.85408813  0.61857017  0.18110382  1  0.151467  0.000128  0.109966  0.11553  3.7e-05  1.025008  0.0
H  H56  1  0.13094613  0.55875982  0.12793396  1  0.123391  0.001962  0.11704  0.083162  0.000666  1.052077  0.001
H  H57  1  0.89118716  0.55802766  0.06097871  1  0.135562  0.000456  0.116229  0.085111  0.000184  1.003047  0.0
H  H58  1  0.08428948  0.07200956  0.65427436  1  0.153287  0.001814  0.119011  0.094354  0.000658  1.016569  0.001
H  H59  1  0.91543651  0.06704316  0.66395146  1  0.084437  0.000968  0.109641  0.118696  0.00042  1.007474  0.001
H  H60  1  0.84212213  0.12120721  0.77596587  1  0.110177  0.000122  0.109471  0.115282  7.8e-05  1.035702  0.0
H  H61  1  0.10752072  0.18508916  0.85577936  1  0.131051  0.001904  0.115779  0.078059  0.000621  1.057521  0.001
H  H62  1  0.86294983  0.17812110  0.90350628  1  0.134387  0.000427  0.118528  0.090976  0.000182  1.008709  0.0
H  H63  1  0.07450742  0.30271648  0.02501958  1  0.080314  0.000469  0.11508  0.078749  0.000202  1.006857  0.0
H  H64  1  0.92755753  0.41936516  0.29800709  1  0.085962  0.001891  0.117964  0.086701  0.000712  1.008869  0.001
H  H65  1  0.08860065  0.41017435  0.26013619  1  0.111696  0.000849  0.108517  0.118506  0.000357  1.035961  0.0
H  H66  1  0.12321055  0.35775415  0.13729092  1  0.152662  -1.2e-05  0.112386  0.118134  -0.000131  1.022494  0.0
H  H67  1  0.83666996  0.31769336  0.10521067  1  0.146209  0.001991  0.121565  0.095539  0.000695  1.022418  0.002
H  H68  1  0.24529160  0.98797042  0.33631182  1  0.145424  0.002118  0.120249  0.102407  0.000784  1.033969  0.002
H  H69  1  0.23142806  0.98415260  0.46261293  1  0.113079  0.001144  0.113485  0.124768  0.000587  1.005441  0.001
H  H70  1  0.22289674  0.11797457  0.54248756  1  0.16596  0.000241  0.112722  0.131319  5.6e-05  1.021824  0.0
H  H71  1  0.23437173  0.24371872  0.36532729  1  0.137846  0.002373  0.125225  0.106808  0.000852  1.021661  0.002
H  H72  1  0.20373201  0.27226806  0.55708016  1  0.134454  0.000727  0.113564  0.086175  0.000433  1.045505  0.0
H  H73  1  0.19508815  0.46905552  0.44850464  1  0.126708  0.000639  0.11295  0.087808  0.000372  1.047288  0.0
H  H74  1  0.22390083  0.75598666  0.66907104  1  0.187766  0.00206  0.119957  0.102042  0.000766  1.036338  0.002
H  H75  1  0.20975318  0.75896353  0.54281872  1  0.143776  0.001061  0.114057  0.124655  0.000551  0.998181  0.001
H  H76  1  0.20426619  0.62454847  0.46324323  1  0.139032  0.00027  0.111545  0.128056  0.000103  1.017566  0.0
H  H77  1  0.21372733  0.50022608  0.64150509  1  0.158424  0.002303  0.125728  0.109231  0.000818  1.013319  0.002
H  H78  1  0.08559288  0.17692177  0.32156614  1  0.11039  0.001795  0.118058  0.086482  0.000636  1.00812  0.001
H  H79  1  0.92015752  0.18236566  0.29775140  1  0.117541  0.000915  0.109555  0.118886  0.000423  1.010628  0.0
H  H80  1  0.86338057  0.12632368  0.18055109  1  0.165272  0.0  0.108384  0.113839  -9.2e-05  1.043762  0.0
H  H81  1  0.13937892  0.06049043  0.12470449  1  0.149202  0.00202  0.11941  0.091303  0.000712  1.038359  0.002
H  H82  1  0.89639678  0.06595362  0.06084120  1  0.094034  0.000517  0.118227  0.086391  0.000238  0.995329  0.0
H  H83  1  0.42711661  0.66880836  0.82613849  1  0.143621  0.001805  0.11804  0.096149  0.000642  1.023589  0.001
H  H84  1  0.59280938  0.66812595  0.80043542  1  0.139375  0.000785  0.109151  0.11766  0.000324  1.027413  0.0
H  H85  1  0.64590613  0.61856822  0.68109762  1  0.151524  0.000128  0.109957  0.115522  3.7e-05  1.025064  0.0
H  H86  1  0.36904494  0.55876186  0.62793532  1  0.123369  0.001962  0.117026  0.083238  0.000666  1.051942  0.001
H  H87  1  0.60880723  0.55802750  0.56097771  1  0.13567  0.000455  0.116206  0.085104  0.000184  1.003167  0.0
H  H88  1  0.41571127  0.07200421  0.15427424  1  0.153406  0.001815  0.119006  0.094384  0.000659  1.016475  0.001
H  H89  1  0.58456381  0.06704106  0.16395150  1  0.084562  0.000968  0.109611  0.118686  0.00042  1.007527  0.001
H  H90  1  0.65787869  0.12120521  0.27596558  1  0.110106  0.000121  0.109486  0.115327  7.8e-05  1.035713  0.0
H  H91  1  0.39248162  0.18508933  0.35577883  1  0.130741  0.001903  0.115775  0.078066  0.00062  1.057549  0.001
H  H92  1  0.63705291  0.17812215  0.40350378  1  0.134284  0.000427  0.118596  0.091081  0.000182  1.00889  0.0
H  H93  1  0.42549376  0.30271551  0.52501666  1  0.079982  0.000469  0.115053  0.078767  0.000202  1.006852  0.0
H  H94  1  0.57244169  0.41936126  0.79800962  1  0.085983  0.00189  0.117955  0.086686  0.000711  1.008837  0.001
H  H95  1  0.41139887  0.41017151  0.76013503  1  0.111767  0.000849  0.108503  0.11848  0.000357  1.035923  0.0
H  H96  1  0.37679249  0.35775189  0.63728975  1  0.152648  -1.2e-05  0.112388  0.118088  -0.000131  1.022599  0.0
H  H97  1  0.66333177  0.31769327  0.60521183  1  0.146203  0.001992  0.121555  0.095506  0.000696  1.022433  0.002
H  H98  1  0.74529318  0.01203068  0.16368120  1  0.145238  0.002118  0.120227  0.102454  0.000784  1.033841  0.002
H  H99  1  0.73142442  0.01584540  0.03737969  1  0.113103  0.001144  0.113499  0.124714  0.000587  1.00555  0.001
H  H100  1  0.72289032  0.88202224  0.95750763  1  0.165802  0.000241  0.112667  0.131197  5.6e-05  1.021992  0.0
H  H101  1  0.73436526  0.75628237  0.13467128  1  0.137901  0.002373  0.125172  0.106698  0.000852  1.02174  0.002
H  H102  1  0.70372401  0.72773057  0.94291773  1  0.134577  0.000727  0.11358  0.086199  0.000433  1.045414  0.0
H  H103  1  0.69509055  0.53094428  0.05149572  1  0.126704  0.000638  0.112974  0.087844  0.000372  1.047325  0.0
H  H104  1  0.72389793  0.24400769  0.83093095  1  0.18779  0.00206  0.119957  0.10199  0.000765  1.036371  0.002
H  H105  1  0.70974874  0.24103326  0.95718454  1  0.143718  0.001061  0.114045  0.124601  0.000551  0.998123  0.001
H  H106  1  0.70426768  0.37544949  0.03675846  1  0.138995  0.00027  0.111558  0.12808  0.000103  1.017573  0.0
H  H107  1  0.71373225  0.49976764  0.85849528  1  0.158569  0.002304  0.125744  0.109252  0.000818  1.013317  0.002
H  H108  1  0.58559611  0.82307788  0.17843243  1  0.110352  0.001796  0.118039  0.086381  0.000636  1.008215  0.001
H  H109  1  0.42015995  0.81763259  0.20224623  1  0.117534  0.000915  0.109549  0.118811  0.000423  1.010613  0.0
H  H110  1  0.36338353  0.87367450  0.31944742  1  0.165313  0.0  0.108399  0.113856  -9.2e-05  1.043705  0.0
H  H111  1  0.63938170  0.93951114  0.37529190  1  0.149181  0.00202  0.119407  0.091287  0.000712  1.03846  0.002
H  H112  1  0.39639959  0.93404460  0.43915840  1  0.093948  0.000518  0.118254  0.086421  0.000238  0.995291  0.0
H  H113  1  0.92711589  0.33119489  0.67386248  1  0.143693  0.001806  0.118058  0.096171  0.000643  1.023485  0.001
H  H114  1  0.09280720  0.33187809  0.69956846  1  0.139508  0.000785  0.109182  0.11776  0.000324  1.027373  0.0
H  H115  1  0.14590244  0.38143219  0.81890645  1  0.151905  0.000128  0.109967  0.115528  3.7e-05  1.02502  0.0
H  H116  1  0.86904309  0.44124193  0.87206559  1  0.123265  0.001961  0.117016  0.083191  0.000666  1.052057  0.001
H  H117  1  0.10880206  0.44197656  0.93902671  1  0.135658  0.000456  0.116226  0.085131  0.000184  1.003217  0.0
H  H118  1  0.91571528  0.92798787  0.34572618  1  0.153381  0.001815  0.11903  0.094405  0.000659  1.016452  0.001
H  H119  1  0.08456824  0.93294627  0.33604965  1  0.084578  0.000968  0.109642  0.118734  0.00042  1.007463  0.001
H  H120  1  0.15788398  0.87878468  0.22403554  1  0.110331  0.000121  0.109459  0.11525  7.8e-05  1.035745  0.0
H  H121  1  0.89248471  0.81491382  0.14421932  1  0.130473  0.001903  0.115784  0.078094  0.00062  1.05752  0.001
H  H122  1  0.13705493  0.82187942  0.09649464  1  0.134607  0.000427  0.118573  0.090999  0.000182  1.008692  0.0
H  H123  1  0.92549666  0.69728343  0.97498177  1  0.080074  0.00047  0.115033  0.078721  0.000202  1.006755  0.0
H  H124  1  0.07243913  0.58062796  0.70198939  1  0.085929  0.00189  0.117972  0.08668  0.000711  1.008738  0.001
H  H125  1  0.91139600  0.58982555  0.73986415  1  0.111683  0.000849  0.108555  0.118536  0.000357  1.035941  0.0
H  H126  1  0.87679218  0.64225068  0.86270900  1  0.152673  -1.2e-05  0.112395  0.118044  -0.000131  1.022583  0.0
H  H127  1  0.16333412  0.68229299  0.89478651  1  0.145701  0.001991  0.121635  0.095667  0.000695  1.022288  0.002
C  C128  1  0.76001873  0.95571634  0.62720067  1  0.450995  -0.004486  0.045703  0.079609  -0.005252  3.888832  -0.003
C  C129  1  0.76720709  0.95706072  0.55692015  1  -0.027573  0.00634  -0.075447  -0.107754  0.003689  3.954649  0.005
C  C130  1  0.77250667  0.88289407  0.51271390  1  -0.034544  -0.007067  -0.05856  -0.067057  -0.007718  3.866607  -0.004
C  C131  1  0.77033832  0.80861007  0.54025719  1  -0.023661  0.006483  -0.002228  0.039002  0.003696  4.023922  0.005
C  C132  1  0.76511911  0.81276202  0.61157117  1  0.459659  -0.004015  0.049875  0.027368  -0.004382  3.900385  -0.003
C  C133  1  0.77463238  0.72924884  0.49619814  1  0.604868  0.000892  0.066875  0.035102  0.000549  3.926431  0.001
C  C134  1  0.78558148  0.52758419  0.49745121  1  0.609843  0.001098  0.06669  0.033074  0.000671  3.923356  0.001
C  C135  1  0.78214453  0.30057573  0.36705887  1  0.363435  -0.003468  0.046084  0.081021  -0.004484  3.888434  -0.003
C  C136  1  0.78913531  0.29969216  0.43743494  1  0.023982  0.005897  -0.074764  -0.104751  0.003461  3.949086  0.005
C  C137  1  0.79249502  0.37414222  0.48138937  1  -0.045286  -0.005732  -0.055764  -0.064132  -0.006281  3.867168  -0.004
C  C138  1  0.78927453  0.44814903  0.45344714  1  -0.003884  0.006181  -0.003166  0.033975  0.003527  4.027174  0.005
C  C139  1  0.78648408  0.44353197  0.38197117  1  0.440587  -0.00199  0.048629  0.025992  -0.002581  3.901937  -0.001
C  C140  1  0.94155678  0.84811272  0.72842178  1  0.44109  -0.003158  0.046486  0.088001  -0.003739  3.932228  -0.002
C  C141  1  0.03340669  0.84440951  0.74215968  1  0.031459  0.004777  -0.081008  -0.113395  0.002782  3.967265  0.004
C  C142  1  0.06482691  0.87618842  0.80716548  1  -0.136882  -0.005468  -0.05858  -0.058537  -0.005939  3.87929  -0.003
C  C143  1  0.00270336  0.91176184  0.85659722  1  0.041898  0.005275  -0.004039  0.025766  0.003032  4.000198  0.004
C  C144  1  0.91104927  0.91334136  0.83812157  1  0.508971  -0.004138  0.057758  0.067409  -0.004641  3.856436  -0.003
C  C145  1  0.03322275  0.94523267  0.92530110  1  0.603551  0.00064  0.076357  0.060876  0.000354  3.920533  0.0
C  C146  1  0.54665646  0.35489474  0.22454795  1  0.469221  -0.002797  0.043443  0.084363  -0.003256  3.915338  -0.002
C  C147  1  0.45506368  0.35437632  0.23971215  1  -0.130678  0.004953  -0.084741  -0.114422  0.002875  3.966225  0.004
C  C148  1  0.42562304  0.38362801  0.30588748  1  -0.027849  -0.004879  -0.058718  -0.06075  -0.005326  3.886791  -0.003
C  C149  1  0.48953702  0.41615948  0.35498146  1  -0.001129  0.004769  -0.00388  0.023729  0.002733  4.005702  0.004
C  C150  1  0.58059023  0.41568716  0.33479764  1  0.482939  -0.003893  0.05854  0.070183  -0.004503  3.864026  -0.003
C  C151  1  0.46221005  0.44936466  0.42467798  1  0.621146  0.000538  0.078109  0.065237  0.000297  3.908507  0.0
C  C152  1  0.54955963  0.90445170  0.79817066  1  0.432796  -0.002124  0.044446  0.088604  -0.002575  3.91302  -0.001
C  C153  1  0.45608206  0.90736309  0.79209063  1  -0.023595  0.005185  -0.08275  -0.116369  0.003002  3.959745  0.004
C  C154  1  0.41527256  0.87666693  0.72985878  1  -0.011849  -0.004743  -0.06002  -0.057731  -0.005192  3.87904  -0.003
C  C155  1  0.47026905  0.84210065  0.67525911  1  0.027758  0.004558  -0.004516  0.026861  0.002631  3.994899  0.004
C  C156  1  0.56398366  0.84130432  0.68613010  1  0.47289  -0.004041  0.057203  0.065822  -0.004804  3.883181  -0.003
C  C157  1  0.43359368  0.80882433  0.60809918  1  0.598339  0.000602  0.077338  0.063369  0.000331  3.896535  0.0
C  C158  1  0.50394410  0.70239920  0.45862355  1  0.624896  0.000616  0.075864  0.06661  0.000349  3.922466  0.0
C  C159  1  0.44536055  0.60510374  0.25455128  1  0.509697  -0.003217  0.046925  0.087553  -0.003792  3.932361  -0.002
C  C160  1  0.53476816  0.60915962  0.27610935  1  -0.083344  0.004624  -0.083271  -0.112384  0.00269  3.968623  0.004
C  C161  1  0.55374812  0.63976649  0.34406884  1  0.001741  -0.005353  -0.057495  -0.061562  -0.005849  3.886145  -0.003
C  C162  1  0.48250336  0.66808947  0.38824690  1  0.000367  0.005304  -0.003675  0.026278  0.003055  4.00983  0.004
C  C163  1  0.39407560  0.66208178  0.36203110  1  0.477242  -0.003957  0.058986  0.068023  -0.004474  3.846147  -0.003
C  C164  1  0.26002297  0.04428730  0.87279847  1  0.450326  -0.004486  0.045756  0.07979  -0.005253  3.888699  -0.003
C  C165  1  0.26721229  0.04294232  0.94308095  1  -0.027659  0.006339  -0.075501  -0.10784  0.003689  3.954657  0.005
C  C166  1  0.27251347  0.11710343  0.98728706  1  -0.03464  -0.007064  -0.058601  -0.067102  -0.007715  3.866758  -0.004
C  C167  1  0.27034307  0.19138988  0.95974659  1  -0.02311  0.006482  -0.002238  0.038911  0.003696  4.023846  0.005
C  C168  1  0.26512291  0.18724162  0.88843355  1  0.459399  -0.004014  0.049963  0.027605  -0.004379  3.900274  -0.003
C  C169  1  0.27463544  0.27075106  0.00380545  1  0.604603  0.000893  0.066769  0.035062  0.000549  3.926428  0.001
C  C170  1  0.28557869  0.47241511  0.00254980  1  0.609466  0.001098  0.066711  0.033019  0.000671  3.923356  0.001
C  C171  1  0.28214115  0.69942357  0.13294061  1  0.364447  -0.003464  0.046141  0.081245  -0.004483  3.888597  -0.003
C  C172  1  0.28913166  0.70030961  0.06256739  1  0.024026  0.005898  -0.074791  -0.104858  0.003462  3.949067  0.005
C  C173  1  0.29249314  0.62585278  0.01860910  1  -0.045213  -0.005735  -0.055842  -0.064264  -0.006284  3.866927  -0.004
C  C174  1  0.28927065  0.55185028  0.04655185  1  -0.003944  0.00618  -0.003209  0.033986  0.003527  4.027126  0.005
C  C175  1  0.28647913  0.55646733  0.11802831  1  0.440589  -0.001995  0.048725  0.0261  -0.002585  3.901724  -0.001
C  C176  1  0.44156075  0.15189424  0.77157258  1  0.441135  -0.003158  0.046517  0.088079  -0.003739  3.931954  -0.002
C  C177  1  0.53341083  0.15559814  0.75783234  1  0.03212  0.004775  -0.080907  -0.113306  0.002781  3.967178  0.004
C  C178  1  0.56482873  0.12381681  0.69282834  1  -0.13715  -0.005467  -0.05876  -0.058789  -0.005938  3.87966  -0.003
C  C179  1  0.50270698  0.08824146  0.64339877  1  0.042228  0.005275  -0.004015  0.025835  0.003033  4.000168  0.004
C  C180  1  0.41104937  0.08666064  0.66187415  1  0.509219  -0.004137  0.057719  0.06738  -0.004642  3.856222  -0.003
C  C181  1  0.53322673  0.05476758  0.57469813  1  0.603414  0.00064  0.076399  0.060934  0.000354  3.920664  0.0
C  C182  1  0.04665966  0.64510732  0.27545591  1  0.469221  -0.002796  0.04346  0.08441  -0.003256  3.915376  -0.002
C  C183  1  0.95506163  0.64562260  0.26029273  1  -0.130305  0.004955  -0.084784  -0.114411  0.002876  3.966151  0.004
C  C184  1  0.92562137  0.61637209  0.19411850  1  -0.027847  -0.004878  -0.058733  -0.060867  -0.005324  3.886812  -0.003
C  C185  1  0.98953039  0.58383887  0.14502343  1  -0.001099  0.004769  -0.003937  0.023795  0.002734  4.005296  0.004
C  C186  1  0.08058618  0.58431125  0.16520433  1  0.482949  -0.003893  0.058468  0.070156  -0.004502  3.864152  -0.003
C  C187  1  0.96220177  0.55063550  0.07532809  1  0.621178  0.000538  0.078168  0.065348  0.000297  3.908475  0.0
C  C188  1  0.04956192  0.09555043  0.70182884  1  0.432595  -0.002122  0.044434  0.088687  -0.002574  3.912993  -0.001
C  C189  1  0.95608458  0.09263896  0.70791128  1  -0.023136  0.005183  -0.082725  -0.116308  0.003001  3.959451  0.004
C  C190  1  0.91527603  0.12333815  0.77014138  1  -0.011928  -0.004742  -0.06003  -0.05775  -0.005191  3.878901  -0.003
C  C191  1  0.97027007  0.15790635  0.82474140  1  0.027893  0.004559  -0.004553  0.026958  0.002631  3.99477  0.004
C  C192  1  0.06398578  0.15870338  0.81386807  1  0.474923  -0.004035  0.057195  0.065795  -0.004804  3.882909  -0.003
C  C193  1  0.93359433  0.19118447  0.89189843  1  0.598652  0.000602  0.07744  0.063277  0.000331  3.89651  0.0
C  C194  1  0.00394734  0.29760280  0.04137818  1  0.624288  0.000616  0.075826  0.066641  0.000349  3.922255  0.0
C  C195  1  0.94535545  0.39489762  0.24544881  1  0.509978  -0.003217  0.046936  0.087502  -0.003792  3.932471  -0.002
C  C196  1  0.03476276  0.39084304  0.22389505  1  -0.082394  0.004624  -0.083195  -0.112268  0.002691  3.968253  0.004
C  C197  1  0.05374783  0.36023620  0.15593358  1  0.001311  -0.005354  -0.057519  -0.061746  -0.00585  3.88593  -0.003
C  C198  1  0.98250240  0.33190886  0.11175696  1  0.000447  0.005303  -0.003712  0.026314  0.003055  4.00997  0.004
C  C199  1  0.89407609  0.33791582  0.13797045  1  0.476229  -0.003957  0.059005  0.067947  -0.004475  3.84622  -0.003
C  C200  1  0.23998130  0.04428418  0.37279620  1  0.450371  -0.004487  0.045737  0.079817  -0.005254  3.888894  -0.003
C  C201  1  0.23279158  0.04294103  0.44307737  1  -0.027636  0.006339  -0.075527  -0.107964  0.003688  3.954755  0.005
C  C202  1  0.22749336  0.11710275  0.48728303  1  -0.034786  -0.007066  -0.058562  -0.067049  -0.007716  3.86656  -0.004
C  C203  1  0.22966036  0.19139044  0.45974170  1  -0.02357  0.006484  -0.002217  0.038943  0.003696  4.02381  0.005
C  C204  1  0.23488159  0.18723973  0.38842837  1  0.459775  -0.004013  0.049855  0.027379  -0.00438  3.900367  -0.003
C  C205  1  0.22536697  0.27075167  0.50380075  1  0.604827  0.000893  0.066868  0.035168  0.000549  3.926538  0.001
C  C206  1  0.21441449  0.47241571  0.50254913  1  0.609738  0.001098  0.066602  0.033034  0.000671  3.923328  0.001
C  C207  1  0.21786293  0.69942232  0.63294479  1  0.364084  -0.003465  0.046153  0.0812  -0.004484  3.888231  -0.003
C  C208  1  0.21087552  0.70030836  0.56256902  1  0.023975  0.005897  -0.074858  -0.104951  0.003462  3.949007  0.005
C  C209  1  0.20750906  0.62585460  0.51861161  1  -0.044716  -0.005734  -0.05578  -0.06412  -0.006283  3.866985  -0.004
C  C210  1  0.21072279  0.55185087  0.54655320  1  -0.004114  0.006181  -0.00319  0.033999  0.003527  4.026916  0.005
C  C211  1  0.21351257  0.55646670  0.61803054  1  0.440572  -0.001993  0.048631  0.026005  -0.002584  3.90168  -0.001
C  C212  1  0.05843920  0.15189211  0.27157661  1  0.441124  -0.003157  0.046418  0.087958  -0.003738  3.932175  -0.002
C  C213  1  0.96658929  0.15559470  0.25783864  1  0.031987  0.004776  -0.080929  -0.113435  0.002782  3.967357  0.004
C  C214  1  0.93517042  0.12381148  0.19283283  1  -0.137054  -0.005468  -0.058623  -0.058551  -0.005939  3.879453  -0.003
C  C215  1  0.99729059  0.08823683  0.14340297  1  0.042162  0.005275  -0.003964  0.025733  0.003032  4.00053  0.004
C  C216  1  0.08894940  0.08665854  0.16187725  1  0.509447  -0.004139  0.057718  0.067406  -0.004643  3.856289  -0.003
C  C217  1  0.96677188  0.05476292  0.07470125  1  0.603365  0.00064  0.076428  0.060966  0.000354  3.920458  0.0
C  C218  1  0.45334154  0.64510516  0.77545442  1  0.469224  -0.002797  0.043392  0.084246  -0.003256  3.915481  -0.002
C  C219  1  0.54493635  0.64562235  0.76028956  1  -0.130703  0.004954  -0.084744  -0.114398  0.002875  3.96636  0.004
C  C220  1  0.57437632  0.61637250  0.69411547  1  -0.027568  -0.004879  -0.058725  -0.060741  -0.005326  3.886893  -0.003
C  C221  1  0.51046166  0.58383919  0.64502076  1  -0.00104  0.004768  -0.00389  0.023735  0.002733  4.005635  0.004
C  C222  1  0.41941047  0.58431335  0.66520379  1  0.482761  -0.003892  0.058426  0.069972  -0.004502  3.864064  -0.003
C  C223  1  0.53779268  0.55063586  0.57532497  1  0.621271  0.000538  0.078223  0.065401  0.000297  3.908332  0.0
C  C224  1  0.45044040  0.09554697  0.20183054  1  0.432757  -0.002123  0.044339  0.088514  -0.002574  3.913132  -0.001
C  C225  1  0.54391594  0.09263496  0.20791050  1  -0.023515  0.005184  -0.082781  -0.116366  0.003002  3.959357  0.004
C  C226  1  0.58472747  0.12333605  0.27014294  1  -0.011755  -0.004743  -0.059961  -0.057706  -0.005192  3.878755  -0.003
C  C227  1  0.52973098  0.15790480  0.32474038  1  0.048745  0.004546  -0.004553  0.026935  0.00263  3.994988  0.004
C  C228  1  0.43601840  0.15870051  0.31386880  1  0.47298  -0.004041  0.057237  0.065829  -0.004803  3.882898  -0.003
C  C229  1  0.56641242  0.19117989  0.39189509  1  0.577544  0.000613  0.077313  0.063148  0.000331  3.896505  0.0
C  C230  1  0.49605390  0.29760070  0.54137831  1  0.624693  0.000616  0.075845  0.066642  0.000349  3.922187  0.0
C  C231  1  0.55464353  0.39489431  0.74544833  1  0.509976  -0.003217  0.046989  0.087689  -0.003793  3.932286  -0.002
C  C232  1  0.46523795  0.39084028  0.72389149  1  -0.082672  0.004623  -0.083266  -0.112582  0.00269  3.968687  0.004
C  C233  1  0.44625056  0.36023341  0.65593200  1  0.001554  -0.005354  -0.057474  -0.061455  -0.00585  3.88605  -0.003
C  C234  1  0.51749937  0.33190858  0.61175727  1  0.000425  0.005302  -0.003655  0.026323  0.003055  4.010024  0.004
C  C235  1  0.60592240  0.33791381  0.63796973  1  0.476834  -0.003955  0.059016  0.068016  -0.004473  3.846363  -0.003
C  C236  1  0.73998313  0.95571506  0.12719862  1  0.450904  -0.004487  0.045756  0.079726  -0.005253  3.888742  -0.003
C  C237  1  0.73279044  0.95705882  0.05691852  1  -0.027763  0.006339  -0.075457  -0.107754  0.003688  3.954836  0.005
C  C238  1  0.72748993  0.88289463  0.01271154  1  -0.03456  -0.007067  -0.058605  -0.067085  -0.007718  3.866679  -0.004
C  C239  1  0.72965763  0.80860879  0.04025411  1  -0.023369  0.006483  -0.002201  0.038896  0.003696  4.023812  0.005
C  C240  1  0.73487982  0.81276074  0.11156810  1  0.459585  -0.004017  0.049922  0.027526  -0.004382  3.900487  -0.003
C  C241  1  0.72536121  0.72924638  0.99619662  1  0.604879  0.000892  0.066792  0.035157  0.000549  3.926426  0.001
C  C242  1  0.71441458  0.52757986  0.99745147  1  0.60978  0.001098  0.066536  0.032893  0.000671  3.923314  0.001
C  C243  1  0.71786023  0.30057326  0.86705834  1  0.364165  -0.003465  0.046087  0.081156  -0.004483  3.888384  -0.003
C  C244  1  0.71087242  0.29968906  0.93743331  1  0.024019  0.005896  -0.074848  -0.104847  0.003461  3.94917  0.005
C  C245  1  0.70750958  0.37414281  0.98139021  1  -0.045026  -0.005734  -0.055785  -0.064216  -0.006282  3.86703  -0.004
C  C246  1  0.71072397  0.44814654  0.95344710  1  -0.004064  0.006182  -0.003115  0.034111  0.003527  4.027166  0.005
C  C247  1  0.71351482  0.44352887  0.88197107  1  0.440627  -0.001993  0.048584  0.025948  -0.002583  3.901934  -0.001
C  C248  1  0.55844401  0.84810751  0.22842292  1  0.441189  -0.003158  0.046501  0.088118  -0.00374  3.932097  -0.002
C  C249  1  0.46659055  0.84440485  0.24216178  1  0.032028  0.004776  -0.080962  -0.113394  0.002782  3.967163  0.004
C  C250  1  0.43517467  0.87618740  0.30716542  1  -0.13698  -0.005467  -0.058657  -0.058642  -0.005938  3.879431  -0.003
C  C251  1  0.49729710  0.91176214  0.35659491  1  0.041996  0.005276  -0.004081  0.025755  0.003033  4.000258  0.004
C  C252  1  0.58895404  0.91334235  0.33811997  1  0.509549  -0.004137  0.057843  0.067492  -0.004642  3.856447  -0.003
C  C253  1  0.46677870  0.94523601  0.42529707  1  0.603858  0.00064  0.076418  0.060898  0.000354  3.920745  0.0
C  C254  1  0.95334037  0.35489935  0.72454829  1  0.46959  -0.002797  0.043403  0.084287  -0.003255  3.915448  -0.002
C  C255  1  0.04493368  0.35438100  0.73971109  1  -0.131751  0.004955  -0.08481  -0.114618  0.002875  3.966273  0.004
C  C256  1  0.07437393  0.38363089  0.80588880  1  -0.027269  -0.004879  -0.058753  -0.060659  -0.005326  3.886896  -0.003
C  C257  1  0.01046153  0.41616288  0.85498068  1  -0.000991  0.004768  -0.003827  0.023765  0.002733  4.005742  0.004
C  C258  1  0.91940710  0.41569235  0.83479898  1  0.482897  -0.003893  0.058346  0.06995  -0.004504  3.863953  -0.003
C  C259  1  0.03778678  0.44936872  0.92467835  1  0.621337  0.000538  0.078181  0.06531  0.000297  3.90866  0.0
C  C260  1  0.95044284  0.90444516  0.29816946  1  0.432539  -0.002122  0.044301  0.088474  -0.002574  3.913307  -0.001
C  C261  1  0.04391882  0.90735478  0.29209186  1  -0.023929  0.005183  -0.082773  -0.116392  0.003002  3.959498  0.004
C  C262  1  0.08473007  0.87665621  0.22985982  1  -0.011289  -0.004743  -0.059938  -0.057561  -0.005192  3.878695  -0.003
C  C263  1  0.02973266  0.84208986  0.17525900  1  0.048753  0.004545  -0.004586  0.026782  0.00263  3.99491  0.004
C  C264  1  0.93602033  0.84129653  0.18612922  1  0.473131  -0.00404  0.057267  0.065913  -0.004802  3.882912  -0.003
C  C265  1  0.06641245  0.80881605  0.10810199  1  0.577305  0.000614  0.077423  0.063368  0.000331  3.896212  0.0
C  C266  1  0.99606011  0.70239648  0.95862158  1  0.624793  0.000616  0.075918  0.066581  0.000349  3.922151  0.0
C  C267  1  0.05464390  0.60509550  0.75455122  1  0.510067  -0.003217  0.046933  0.087621  -0.003792  3.932163  -0.002
C  C268  1  0.96523456  0.60915440  0.77610752  1  -0.082373  0.004624  -0.083279  -0.112522  0.00269  3.968426  0.004
C  C269  1  0.94625288  0.63976370  0.84406777  1  0.001152  -0.005352  -0.057485  -0.061462  -0.005848  3.886077  -0.003
C  C270  1  0.01749763  0.66808550  0.88824220  1  0.000922  0.005303  -0.003798  0.02627  0.003055  4.009905  0.004
C  C271  1  0.10592663  0.66207422  0.86202972  1  0.476466  -0.003956  0.059019  0.067895  -0.004475  3.84621  -0.003
N  N272  1  0.75952172  0.88446772  0.65395853  1  -1.22921  0.081327  -0.33393  -0.215211  0.047805  3.647767  0.072
N  N273  1  0.75212552  0.66233879  0.51962202  1  -0.758232  0.001299  -0.201613  -0.151953  0.000706  3.36428  0.001
N  N274  1  0.75733865  0.59207261  0.47297819  1  -0.741304  0.001239  -0.201483  -0.148744  0.000677  3.363976  0.001
N  N275  1  0.78131053  0.37152191  0.33986354  1  -1.236957  0.080323  -0.337602  -0.224418  0.047118  3.653834  0.071
N  N276  1  0.88115320  0.88208894  0.77556773  1  -1.232424  0.070933  -0.327672  -0.223524  0.04189  3.610799  0.063
N  N277  1  0.97916917  0.98700423  0.96880541  1  -0.753722  0.000849  -0.214779  -0.174561  0.00049  3.312678  0.001
N  N278  1  0.60902942  0.38460239  0.27188175  1  -1.204914  0.069043  -0.325082  -0.222607  0.04083  3.588588  0.062
N  N279  1  0.51955274  0.48638645  0.46834809  1  -0.778405  0.000738  -0.215978  -0.180626  0.000431  3.316262  0.001
N  N280  1  0.60313058  0.87247698  0.74535694  1  -1.211112  0.070463  -0.327933  -0.222934  0.041737  3.606927  0.063
N  N281  1  0.48577218  0.76581831  0.56398747  1  -0.770228  0.000828  -0.214935  -0.179915  0.00049  3.349997  0.001
N  N282  1  0.44513691  0.73893557  0.50130014  1  -0.752539  0.000781  -0.214716  -0.173928  0.000446  3.278207  0.001
N  N283  1  0.37595664  0.63077481  0.29673078  1  -1.216334  0.071281  -0.326817  -0.222781  0.042133  3.6091  0.064
N  N284  1  0.73958930  0.74755297  0.80922026  1  0.813605  -0.006185  0.091935  0.683834  -0.00713  4.390524  -0.007
N  N285  1  0.72049098  0.03922823  0.84503904  1  0.78367  -0.001901  0.102402  0.710483  -0.002374  4.416361  -0.002
N  N286  1  0.71966272  0.50522308  0.18652219  1  0.820173  -0.006336  0.092152  0.68496  -0.007326  4.39389  -0.007
N  N287  1  0.71553172  0.21706008  0.15121953  1  0.830835  -0.001125  0.100528  0.705691  -0.001682  4.418014  -0.002
N  N288  1  0.25952527  0.11553777  0.84604488  1  -1.228992  0.081323  -0.333935  -0.215427  0.047802  3.648  0.072
N  N289  1  0.25212376  0.33765868  0.98038345  1  -0.758229  0.001299  -0.20154  -0.151915  0.000707  3.364498  0.001
N  N290  1  0.25733318  0.40792788  0.02702543  1  -0.741029  0.001239  -0.201502  -0.148741  0.000677  3.363943  0.001
N  N291  1  0.28130515  0.62848108  0.16013740  1  -1.238125  0.080321  -0.337659  -0.22456  0.047118  3.653943  0.071
N  N292  1  0.38115357  0.11791425  0.72442554  1  -1.232761  0.070927  -0.32768  -0.22347  0.041886  3.610507  0.063
N  N293  1  0.47917475  0.01299169  0.53119176  1  -0.775691  0.000851  -0.214739  -0.174549  0.00049  3.312847  0.001
N  N294  1  0.10902497  0.61539730  0.22811993  1  -1.204813  0.069049  -0.324978  -0.222529  0.040834  3.588664  0.062
N  N295  1  0.01954201  0.51361928  0.03165817  1  -0.778035  0.000738  -0.21602  -0.180709  0.000431  3.316663  0.001
N  N296  1  0.10313041  0.12752953  0.75464422  1  -1.213702  0.070455  -0.327851  -0.222924  0.041737  3.606951  0.063
N  N297  1  0.98577373  0.23419302  0.93601106  1  -0.769987  0.000828  -0.214983  -0.179924  0.00049  3.349907  0.001
N  N298  1  0.94513805  0.26107448  0.99869713  1  -0.752273  0.000781  -0.214734  -0.173947  0.000446  3.278161  0.001
N  N299  1  0.87595675  0.36922154  0.20327108  1  -1.215778  0.071281  -0.326808  -0.222617  0.042132  3.609142  0.064
N  N300  1  0.23958969  0.25245372  0.69078325  1  0.813515  -0.006185  0.09213  0.684339  -0.007131  4.390205  -0.007
N  N301  1  0.22048258  0.96078090  0.65496117  1  0.78325  -0.0019  0.102475  0.710699  -0.002374  4.416058  -0.002
N  N302  1  0.21966387  0.49477429  0.31347438  1  0.820858  -0.006336  0.092014  0.684794  -0.007326  4.393769  -0.007
N  N303  1  0.21554414  0.78293975  0.34878037  1  0.830992  -0.001125  0.100616  0.705805  -0.001682  4.417833  -0.002
N  N304  1  0.24047695  0.11553527  0.34604117  1  -1.228977  0.081324  -0.33393  -0.215301  0.047805  3.647897  0.072
N  N305  1  0.24787046  0.33765988  0.48037868  1  -0.758208  0.001299  -0.20167  -0.152055  0.000706  3.364495  0.001
N  N306  1  0.24265597  0.40792667  0.52702308  1  -0.741182  0.001239  -0.201383  -0.148683  0.000677  3.363887  0.001
N  N307  1  0.21869220  0.62847737  0.66014028  1  -1.237824  0.080326  -0.337556  -0.224468  0.047121  3.653877  0.071
N  N308  1  0.11884548  0.11791281  0.22443030  1  -1.23292  0.070931  -0.327658  -0.223491  0.041889  3.610564  0.063
N  N309  1  0.02083086  0.01298582  0.03119374  1  -0.775735  0.000851  -0.214794  -0.174526  0.00049  3.312374  0.001
N  N310  1  0.39097128  0.61539628  0.72812097  1  -1.204784  0.069046  -0.324923  -0.222313  0.040831  3.588354  0.062
N  N311  1  0.48044999  0.51361715  0.53165472  1  -0.759551  0.000737  -0.215981  -0.180636  0.000431  3.316263  0.001
N  N312  1  0.39687080  0.12752600  0.25464225  1  -1.211089  0.070462  -0.327824  -0.222858  0.041736  3.606832  0.063
N  N313  1  0.51422514  0.23418898  0.43601122  1  -0.769455  0.000828  -0.214902  -0.179806  0.00049  3.3495  0.001
N  N314  1  0.55486379  0.26106988  0.49869731  1  -0.752824  0.000781  -0.214699  -0.174016  0.000446  3.277955  0.001
N  N315  1  0.62404406  0.36921893  0.70326780  1  -1.216385  0.071276  -0.3269  -0.222767  0.04213  3.60911  0.064
N  N316  1  0.26040803  0.25245432  0.19078249  1  0.813479  -0.006186  0.092016  0.684182  -0.00713  4.390085  -0.007
N  N317  1  0.27951580  0.96077721  0.15495638  1  0.783326  -0.0019  0.102554  0.710663  -0.002374  4.415749  -0.002
N  N318  1  0.28033663  0.49476943  0.81347725  1  0.82032  -0.006334  0.091987  0.684816  -0.007324  4.393949  -0.007
N  N319  1  0.28446291  0.78294044  0.84877885  1  0.831412  -0.001125  0.100515  0.705781  -0.001681  4.417966  -0.002
N  N320  1  0.74047746  0.88446459  0.15395677  1  -1.229436  0.081323  -0.333937  -0.215283  0.047801  3.647852  0.072
N  N321  1  0.74786749  0.66233876  0.01961811  1  -0.758275  0.001299  -0.201589  -0.152016  0.000706  3.364611  0.001
N  N322  1  0.74265266  0.59207263  0.97297498  1  -0.741157  0.00124  -0.201358  -0.148611  0.000677  3.363796  0.001
N  N323  1  0.71869150  0.37152129  0.83986222  1  -1.237805  0.080325  -0.337534  -0.224384  0.047119  3.653811  0.071
N  N324  1  0.61884848  0.88208750  0.27556843  1  -1.233149  0.070937  -0.327713  -0.223547  0.041893  3.610929  0.063
N  N325  1  0.52083068  0.98700759  0.46880242  1  -0.753925  0.000849  -0.214828  -0.174529  0.00049  3.312941  0.001
N  N326  1  0.89096830  0.38460692  0.77188042  1  -1.204971  0.069047  -0.324887  -0.222329  0.040831  3.58833  0.062
N  N327  1  0.98044384  0.48638678  0.96834747  1  -0.759806  0.000737  -0.215926  -0.18051  0.000431  3.316315  0.001
N  N328  1  0.89687300  0.87246976  0.24535706  1  -1.21099  0.07046  -0.327848  -0.222918  0.041734  3.606871  0.063
N  N329  1  0.01422968  0.76580626  0.06398869  1  -0.769923  0.000828  -0.21506  -0.180049  0.00049  3.349689  0.001
N  N330  1  0.05486670  0.73892357  0.00130096  1  -0.752562  0.000781  -0.214683  -0.173811  0.000446  3.27806  0.001
N  N331  1  0.12404598  0.63076851  0.79673060  1  -1.216005  0.071277  -0.326857  -0.222721  0.04213  3.609128  0.064
N  N332  1  0.76040628  0.74754803  0.30921731  1  0.813501  -0.006185  0.091951  0.683985  -0.007129  4.390368  -0.007
N  N333  1  0.77951002  0.03922270  0.34503961  1  0.783901  -0.001901  0.102482  0.710666  -0.002375  4.415732  -0.002
N  N334  1  0.78033548  0.50522438  0.68652378  1  0.820118  -0.006334  0.092096  0.684992  -0.007324  4.394239  -0.007
N  N335  1  0.78446535  0.21705584  0.65122553  1  0.831586  -0.001126  0.100532  0.705727  -0.001682  4.417795  -0.002
O  O336  1  0.72898729  0.81825012  0.84601495  1  -0.529157  0.065097  -0.174532  -0.424891  0.037609  2.083275  0.06
O  O337  1  0.75120558  0.74880129  0.74479437  1  -0.531405  0.084178  -0.172697  -0.406781  0.048603  2.095576  0.078
O  O338  1  0.73773833  0.68235483  0.83382935  1  -0.482866  0.012397  -0.134287  -0.367093  0.006475  2.029844  0.011
O  O339  1  0.73366244  0.00517720  0.78160423  1  -0.587024  0.076234  -0.205438  -0.460141  0.043921  2.155193  0.072
O  O340  1  0.71234892  0.99484851  0.89122287  1  -0.524463  -0.001189  -0.176886  -0.432827  -0.001827  1.978612  0.0
O  O341  1  0.71707608  0.11619129  0.85652604  1  -0.477157  0.014416  -0.176227  -0.434373  0.007808  1.996097  0.012
O  O342  1  0.75007943  0.50635554  0.24771154  1  -0.538368  0.084308  -0.17285  -0.406552  0.048478  2.088585  0.078
O  O343  1  0.70477441  0.43336989  0.15283775  1  -0.537761  0.067106  -0.174991  -0.423911  0.038761  2.083776  0.061
O  O344  1  0.70494468  0.56942011  0.16213934  1  -0.479863  0.012536  -0.141519  -0.372357  0.006503  1.997307  0.011
O  O345  1  0.73574948  0.24980825  0.21397477  1  -0.587604  0.074492  -0.206934  -0.462147  0.042852  2.143861  0.07
O  O346  1  0.68387388  0.26110269  0.11023667  1  -0.517088  -0.000455  -0.176708  -0.426666  -0.001304  1.9629  0.0
O  O347  1  0.72942717  0.14145280  0.13508725  1  -0.526727  0.015789  -0.17336  -0.431601  0.008606  2.001605  0.013
O  O348  1  0.22898612  0.18175656  0.65398803  1  -0.528839  0.065094  -0.174571  -0.425071  0.037613  2.083256  0.06
O  O349  1  0.25121568  0.25120850  0.75520852  1  -0.531493  0.084177  -0.172756  -0.407019  0.048603  2.095534  0.078
O  O350  1  0.23773533  0.31765125  0.66617256  1  -0.483055  0.012398  -0.134374  -0.367264  0.006476  2.029751  0.011
O  O351  1  0.23365771  0.99483010  0.71839326  1  -0.586999  0.076228  -0.205413  -0.460218  0.043917  2.155389  0.072
O  O352  1  0.21234196  0.00515876  0.60877659  1  -0.524065  -0.001188  -0.17683  -0.432875  -0.001826  1.978291  0.0
O  O353  1  0.21706688  0.88381784  0.64347112  1  -0.477112  0.014419  -0.176369  -0.434478  0.00781  1.996048  0.012
O  O354  1  0.25007494  0.49364495  0.25228395  1  -0.538442  0.084312  -0.172663  -0.406374  0.04848  2.088593  0.078
O  O355  1  0.20477577  0.56662561  0.34716060  1  -0.538345  0.067099  -0.175103  -0.42399  0.038758  2.083564  0.061
O  O356  1  0.20495463  0.43057293  0.33785567  1  -0.479873  0.012536  -0.141464  -0.372341  0.006504  1.997333  0.011
O  O357  1  0.23575757  0.75019037  0.28602554  1  -0.587685  0.074487  -0.207044  -0.46239  0.042848  2.144041  0.07
O  O358  1  0.18389181  0.73889956  0.38976548  1  -0.516824  -0.000456  -0.176683  -0.42659  -0.001304  1.962848  0.0
O  O359  1  0.22943906  0.85854828  0.36491080  1  -0.52701  0.015788  -0.173382  -0.431623  0.008606  2.001465  0.013
O  O360  1  0.27101071  0.18175594  0.15398866  1  -0.52875  0.065091  -0.174591  -0.425051  0.037611  2.083241  0.06
O  O361  1  0.24878635  0.25120539  0.25520881  1  -0.531496  0.084182  -0.172754  -0.406989  0.048606  2.095442  0.078
O  O362  1  0.26225900  0.31765000  0.16617310  1  -0.483045  0.012395  -0.13424  -0.367103  0.006474  2.029677  0.011
O  O363  1  0.26633691  0.99482763  0.21838909  1  -0.586914  0.076228  -0.205515  -0.460284  0.043916  2.155332  0.072
O  O364  1  0.28766597  0.00515878  0.10877430  1  -0.52413  -0.001188  -0.176875  -0.43282  -0.001826  1.978212  0.0
O  O365  1  0.28293205  0.88381539  0.14346548  1  -0.477214  0.014416  -0.176349  -0.434476  0.007809  1.995949  0.012
O  O366  1  0.24992667  0.49364005  0.75228777  1  -0.538341  0.084313  -0.172742  -0.406502  0.04848  2.088797  0.078
O  O367  1  0.29522967  0.56661892  0.84716227  1  -0.538246  0.067101  -0.17505  -0.424009  0.038758  2.083501  0.061
O  O368  1  0.29504522  0.43057117  0.83785996  1  -0.479564  0.012541  -0.141446  -0.37226  0.006506  1.997246  0.011
O  O369  1  0.26424582  0.75019042  0.78602542  1  -0.587587  0.074487  -0.206979  -0.462302  0.042848  2.143925  0.07
O  O370  1  0.31612277  0.73890522  0.88976412  1  -0.517597  -0.000454  -0.176645  -0.426634  -0.001303  1.962851  0.0
O  O371  1  0.27056138  0.85854772  0.86490859  1  -0.526761  0.015792  -0.173389  -0.431655  0.008608  2.001514  0.013
O  O372  1  0.77101256  0.81824765  0.34601080  1  -0.528925  0.065103  -0.174511  -0.424917  0.037612  2.083157  0.06
O  O373  1  0.74878232  0.74879572  0.24479132  1  -0.531508  0.084174  -0.172764  -0.40695  0.048601  2.095535  0.078
O  O374  1  0.76225727  0.68235296  0.33382881  1  -0.482932  0.012395  -0.134258  -0.367053  0.006474  2.029774  0.011
O  O375  1  0.76634232  0.00517041  0.28160259  1  -0.587027  0.076239  -0.205515  -0.460267  0.043922  2.155171  0.072
O  O376  1  0.78764794  0.99484114  0.39122273  1  -0.524542  -0.00119  -0.176786  -0.432823  -0.001828  1.978318  0.0
O  O377  1  0.78293045  0.11618576  0.35652864  1  -0.477233  0.014415  -0.176306  -0.434418  0.007807  1.995919  0.012
O  O378  1  0.74992036  0.50635495  0.74771132  1  -0.538411  0.08431  -0.172804  -0.406541  0.048479  2.088801  0.078
O  O379  1  0.79522358  0.43337429  0.65283771  1  -0.537657  0.067098  -0.174985  -0.423949  0.038757  2.083739  0.061
O  O380  1  0.79504945  0.56942327  0.66214271  1  -0.479888  0.012541  -0.141531  -0.372432  0.006506  1.997477  0.011
O  O381  1  0.76425191  0.24980522  0.71398138  1  -0.58784  0.074495  -0.207073  -0.462281  0.042853  2.143802  0.07
O  O382  1  0.81612104  0.26109726  0.61024209  1  -0.517385  -0.000453  -0.176532  -0.426467  -0.001303  1.962788  0.0
O  O383  1  0.77056165  0.14144916  0.63509380  1  -0.526864  0.015789  -0.173415  -0.43172  0.008606  2.001588  0.013
