# generated using pymatgen
data_ZnH10C17S2O5
_symmetry_space_group_name_H-M   'P 1'
_cell_length_a   19.38594611
_cell_length_b   19.38561559
_cell_length_c   20.45496659
_cell_angle_alpha   89.99985704
_cell_angle_beta   90.00017206
_cell_angle_gamma   119.99675312
_symmetry_Int_Tables_number   1
_chemical_formula_structural   ZnH10C17S2O5
_chemical_formula_sum   'Zn12 H120 C204 S24 O60'
_cell_volume   6657.48523572
_cell_formula_units_Z   12
loop_
 _symmetry_equiv_pos_site_id
 _symmetry_equiv_pos_as_xyz
  1  'x, y, z'
loop_
 _atom_site_type_symbol
 _atom_site_label
 _atom_site_symmetry_multiplicity
 _atom_site_fract_x
 _atom_site_fract_y
 _atom_site_fract_z
 _atom_site_occupancy
 _atom_site_pbe_bader_charge
 _atom_site_pbe_bader_spin_density
 _atom_site_pbe_cm5_charge
 _atom_site_pbe_ddec_charge
 _atom_site_pbe_ddec_spin_density
 _atom_site_pbe_ddec_sum_bond_order
 _atom_site_pbe_magmom
Zn  Zn0  1  0.55891667  0.28161744  0.12393613  1  1.340906  0  0.691434  0.941918  0  2.294065  0
Zn  Zn1  1  0.71832416  0.27726408  0.79077539  1  1.335839  0  0.691222  0.941883  0  2.296207  0
Zn  Zn2  1  0.72285735  0.44113004  0.45739553  1  1.33479  0  0.691449  0.942508  0  2.293898  0
Zn  Zn3  1  0.44108322  0.71838285  0.62393969  1  1.340939  0  0.691446  0.941936  0  2.29403  0
Zn  Zn4  1  0.28167379  0.72273421  0.29077538  1  1.335785  0  0.691237  0.941877  0  2.296154  0
Zn  Zn5  1  0.27714397  0.55886919  0.95739460  1  1.334779  0  0.691468  0.942538  0  2.293836  0
Zn  Zn6  1  0.63603771  0.27129363  0.95782664  1  1.391685  0  0.688916  1.014617  0  2.194034  0
Zn  Zn7  1  0.72863686  0.36477724  0.62456774  1  1.38984  0  0.689133  1.015342  0  2.194562  0
Zn  Zn8  1  0.63505453  0.36387263  0.29123243  1  1.388333  0  0.689405  1.01558  0  2.194485  0
Zn  Zn9  1  0.36396294  0.72870731  0.45782978  1  1.391522  0  0.688883  1.014556  0  2.194049  0
Zn  Zn10  1  0.27136059  0.63522239  0.12456693  1  1.389785  0  0.689178  1.015478  0  2.194361  0
Zn  Zn11  1  0.36494844  0.63612889  0.79123254  1  1.388261  0  0.689392  1.015588  0  2.19447  0
H  H12  1  0.04964174  0.40584500  0.14949922  1  0.092632  0  0.108123  0.115381  0  0.986  0
H  H13  1  0.59429438  0.64404042  0.81617741  1  0.086785  0  0.107935  0.115314  0  0.986223  0
H  H14  1  0.35644707  0.95056956  0.48289139  1  0.120528  0  0.107867  0.114896  0  0.986536  0
H  H15  1  0.95036104  0.59415450  0.64949767  1  0.092908  0  0.108116  0.115364  0  0.986013  0
H  H16  1  0.40570708  0.35596367  0.31617569  1  0.086745  0  0.107906  0.115254  0  0.986268  0
H  H17  1  0.64355873  0.04943346  0.98289271  1  0.120692  0  0.107887  0.11496  0  0.986446  0
H  H18  1  0.07732984  0.21340121  0.00680212  1  0.06504  0  0.094635  0.100589  0  1.020794  0
H  H19  1  0.78648721  0.86383902  0.67312219  1  0.041959  0  0.094537  0.100398  0  1.021158  0
H  H20  1  0.13626580  0.92273595  0.34024312  1  0.058785  0  0.094353  0.099934  0  1.021388  0
H  H21  1  0.92267177  0.78659826  0.50679955  1  0.065152  0  0.09465  0.100586  0  1.02078  0
H  H22  1  0.21351340  0.13616060  0.17312387  1  0.041705  0  0.09453  0.100348  0  1.021199  0
H  H23  1  0.86373905  0.07726786  0.84024157  1  0.058842  0  0.094353  0.099921  0  1.021425  0
H  H24  1  0.94840285  0.26140674  0.15480403  1  0.066439  0  0.09835  0.10226  0  1.016525  0
H  H25  1  0.73877386  0.68735053  0.82142030  1  0.059521  0  0.098393  0.102272  0  1.016211  0
H  H26  1  0.31316436  0.05175731  0.48822118  1  0.103379  0  0.098317  0.102076  0  1.016036  0
H  H27  1  0.05159785  0.73859483  0.65480301  1  0.066487  0  0.098362  0.102276  0  1.016555  0
H  H28  1  0.26122600  0.31264897  0.32142121  1  0.05949  0  0.098401  0.10228  0  1.01617  0
H  H29  1  0.68684094  0.94824518  0.98821804  1  0.103519  0  0.098334  0.102141  0  1.016011  0
H  H30  1  0.17876830  0.35792345  0.00327825  1  0.099157  0  0.106318  0.11177  0  1.014996  0
H  H31  1  0.64192601  0.82068903  0.66967837  1  0.104786  0  0.106134  0.111495  0  1.015934  0
H  H32  1  0.17937158  0.82131877  0.33673364  1  0.123279  0  0.10608  0.111341  0  1.015513  0
H  H33  1  0.82123316  0.64207410  0.50327427  1  0.099157  0  0.1063  0.111737  0  1.015052  0
H  H34  1  0.35807598  0.17931437  0.16967987  1  0.104902  0  0.106136  0.11151  0  1.01599  0
H  H35  1  0.82063416  0.17868416  0.83673271  1  0.123178  0  0.106064  0.111379  0  1.015501  0
H  H36  1  0.79304797  0.28467632  0.02420909  1  0.10408  0  0.112283  0.123726  0  0.988293  0
H  H37  1  0.71502837  0.50813697  0.69097099  1  0.119665  0  0.112299  0.123532  0  0.98842  0
H  H38  1  0.49189675  0.20733764  0.35773167  1  0.129737  0  0.112378  0.123452  0  0.988668  0
H  H39  1  0.20695612  0.71532379  0.52420563  1  0.103913  0  0.112267  0.123631  0  0.988384  0
H  H40  1  0.28497165  0.49185604  0.19097398  1  0.119843  0  0.112267  0.123507  0  0.988453  0
H  H41  1  0.50810448  0.79265951  0.85773181  1  0.129821  0  0.112389  0.123462  0  0.988639  0
H  H42  1  0.88058317  0.22552504  0.01797217  1  0.068728  0  0.107331  0.114996  0  0.987519  0
H  H43  1  0.77418418  0.65475843  0.68457587  1  0.071735  0  0.107395  0.115135  0  0.987782  0
H  H44  1  0.34524448  0.11974720  0.35136587  1  0.082782  0  0.107419  0.115214  0  0.987706  0
H  H45  1  0.11941428  0.77446725  0.51796685  1  0.068571  0  0.10738  0.115013  0  0.987472  0
H  H46  1  0.22581116  0.34523409  0.18458002  1  0.072242  0  0.107394  0.115092  0  0.987821  0
H  H47  1  0.65475657  0.88025218  0.85136720  1  0.082849  0  0.107406  0.11519  0  0.987702  0
H  H48  1  0.73967128  0.05519478  0.16647645  1  0.050951  0  0.089147  0.086586  0  1.060161  0
H  H49  1  0.94439202  0.68432098  0.83329595  1  0.037618  0  0.089054  0.086397  0  1.059647  0
H  H50  1  0.31560387  0.26012529  0.50027717  1  0.060721  0  0.08909  0.086877  0  1.060039  0
H  H51  1  0.26033108  0.94480721  0.66646624  1  0.051178  0  0.089164  0.086674  0  1.060165  0
H  H52  1  0.05560292  0.31567830  0.33329578  1  0.037531  0  0.089035  0.086336  0  1.059638  0
H  H53  1  0.68439518  0.73987880  0.00028316  1  0.060847  0  0.089119  0.086919  0  1.060132  0
H  H54  1  0.65034177  0.11318372  0.17085954  1  0.083455  0  0.107466  0.113231  0  0.989989  0
H  H55  1  0.88639345  0.53705910  0.83779715  1  0.102461  0  0.107581  0.113311  0  0.990331  0
H  H56  1  0.46290728  0.34961479  0.50465714  1  0.089901  0  0.10713  0.112664  0  0.990021  0
H  H57  1  0.34965875  0.88681701  0.67085412  1  0.083574  0  0.107437  0.113262  0  0.989871  0
H  H58  1  0.11360697  0.46294089  0.33779484  1  0.102518  0  0.107584  0.113285  0  0.990451  0
H  H59  1  0.53709275  0.65038729  0.00466390  1  0.090369  0  0.107172  0.112686  0  0.990126  0
H  H60  1  0.81286482  0.53414765  0.21792559  1  0.083492  0  0.104624  0.104194  0  1.000842  0
H  H61  1  0.46588899  0.27891253  0.88459087  1  0.064326  0  0.104507  0.103905  0  1.000817  0
H  H62  1  0.72118195  0.18694269  0.55118968  1  0.072058  0  0.10462  0.104305  0  1.000854  0
H  H63  1  0.18712939  0.46585016  0.71792413  1  0.083315  0  0.10463  0.10421  0  1.000872  0
H  H64  1  0.53411000  0.72108585  0.38458865  1  0.064441  0  0.104458  0.103877  0  1.000821  0
H  H65  1  0.27881203  0.81304899  0.05119238  1  0.072205  0  0.104622  0.104277  0  1.000961  0
H  H66  1  0.89882435  0.68030460  0.20658648  1  0.091968  0  0.104782  0.111567  0  0.997719  0
H  H67  1  0.31965707  0.21846537  0.87356701  1  0.074485  0  0.104695  0.111406  0  0.997293  0
H  H68  1  0.78172870  0.10123809  0.54012165  1  0.066944  0  0.104731  0.111636  0  0.997013  0
H  H69  1  0.10116998  0.31969516  0.70658268  1  0.092138  0  0.10478  0.111603  0  0.997612  0
H  H70  1  0.68033872  0.78153103  0.37356848  1  0.074479  0  0.104693  0.111464  0  0.997336  0
H  H71  1  0.21826723  0.89875677  0.04012300  1  0.066848  0  0.104712  0.111603  0  0.997085  0
H  H72  1  0.73986444  0.68045543  0.05930174  1  0.034337  0  0.091534  0.092045  0  1.047968  0
H  H73  1  0.31941290  0.05931114  0.72630663  1  0.029492  0  0.091787  0.09222  0  1.047837  0
H  H74  1  0.94067930  0.26011096  0.39274574  1  0.067078  0  0.091663  0.092491  0  1.047536  0
H  H75  1  0.26013210  0.31954711  0.55929888  1  0.034343  0  0.091531  0.092067  0  1.047925  0
H  H76  1  0.68059234  0.94069112  0.22630870  1  0.029386  0  0.091742  0.092181  0  1.047845  0
H  H77  1  0.05931830  0.73988778  0.89274523  1  0.067255  0  0.091683  0.092486  0  1.04751  0
H  H78  1  0.65282371  0.53485771  0.07306910  1  0.089444  0  0.105307  0.106731  0  1.001603  0
H  H79  1  0.46502773  0.11800468  0.73978711  1  0.081088  0  0.104855  0.106778  0  1.001686  0
H  H80  1  0.88196211  0.34703756  0.40637941  1  0.08062  0  0.105255  0.107146  0  1.001576  0
H  H81  1  0.34717302  0.46514258  0.57307005  1  0.089163  0  0.105336  0.106802  0  1.00156  0
H  H82  1  0.53497900  0.88200437  0.23978891  1  0.081459  0  0.104863  0.106785  0  1.001705  0
H  H83  1  0.11803686  0.65296189  0.90637633  1  0.080508  0  0.105244  0.107121  0  1.001637  0
H  H84  1  0.18688467  0.85659927  0.22378744  1  0.079899  0  0.104983  0.110483  0  1.011233  0
H  H85  1  0.14317787  0.33018046  0.89049063  1  0.100188  0  0.105086  0.110854  0  1.0106  0
H  H86  1  0.66982778  0.81312834  0.55722896  1  0.09285  0  0.105123  0.111123  0  1.010485  0
H  H87  1  0.81312025  0.14340744  0.72378755  1  0.079871  0  0.105006  0.110591  0  1.011201  0
H  H88  1  0.85682084  0.66981821  0.39049336  1  0.100366  0  0.105073  0.11085  0  1.010658  0
H  H89  1  0.33017623  0.18687394  0.05722791  1  0.09281  0  0.105115  0.111117  0  1.010477  0
H  H90  1  0.08534906  0.89604841  0.19940100  1  0.070384  0  0.094251  0.099189  0  1.023454  0
H  H91  1  0.10387677  0.18926894  0.86610156  1  0.067567  0  0.093932  0.098337  0  1.023478  0
H  H92  1  0.81082268  0.91479253  0.53303198  1  0.060758  0  0.093923  0.09889  0  1.02295  0
H  H93  1  0.91465137  0.10395451  0.69939807  1  0.070092  0  0.094186  0.099126  0  1.02351  0
H  H94  1  0.89612240  0.81073027  0.36610455  1  0.067519  0  0.093976  0.098397  0  1.023564  0
H  H95  1  0.18918054  0.08520846  0.03303371  1  0.060955  0  0.093851  0.098796  0  1.022858  0
H  H96  1  0.96437807  0.69395563  0.07092904  1  0.0941  0  0.102287  0.107262  0  0.99842  0
H  H97  1  0.30617500  0.27055324  0.73780675  1  0.079983  0  0.102171  0.107515  0  0.998692  0
H  H98  1  0.72974069  0.03568665  0.40439471  1  0.069837  0  0.102354  0.107987  0  0.998331  0
H  H99  1  0.03562227  0.30604828  0.57092607  1  0.094011  0  0.102269  0.107226  0  0.998538  0
H  H100  1  0.69382428  0.72944778  0.23780936  1  0.079758  0  0.102231  0.107558  0  0.998667  0
H  H101  1  0.27026109  0.96431205  0.90439573  1  0.069989  0  0.102367  0.108032  0  0.998298  0
H  H102  1  0.06668129  0.65549692  0.09555362  1  0.078443  0  0.109508  0.118325  0  0.984466  0
H  H103  1  0.34459698  0.41119259  0.76259719  1  0.109056  0  0.109583  0.117837  0  0.9853  0
H  H104  1  0.58901783  0.93339337  0.42897134  1  0.105837  0  0.109767  0.118617  0  0.984768  0
H  H105  1  0.93332044  0.34450769  0.59555310  1  0.078519  0  0.109525  0.118313  0  0.984516  0
H  H106  1  0.65540326  0.58880750  0.26259758  1  0.109095  0  0.109586  0.117807  0  0.98533  0
H  H107  1  0.41098304  0.06660730  0.92897049  1  0.105887  0  0.109776  0.118629  0  0.984748  0
H  H108  1  0.62052711  0.40262461  0.03050644  1  0.632441  0  0.291721  0.38662  0  0.953027  0
H  H109  1  0.59741501  0.21799224  0.69708704  1  0.641723  0  0.291729  0.386832  0  0.952431  0
H  H110  1  0.78196381  0.37934953  0.36395872  1  0.639336  0  0.29157  0.386373  0  0.953281  0
H  H111  1  0.37947133  0.59736981  0.53050571  1  0.6326  0  0.291807  0.386732  0  0.952857  0
H  H112  1  0.40258558  0.78200846  0.19708674  1  0.641721  0  0.291725  0.386829  0  0.952435  0
H  H113  1  0.21803513  0.62064887  0.86395796  1  0.639354  0  0.291563  0.386362  0  0.953303  0
H  H114  1  0.58199086  0.39211592  0.96019113  1  0.631376  0  0.324627  0.406693  0  0.876158  0
H  H115  1  0.60809531  0.19007368  0.62676969  1  0.600586  0  0.324702  0.406493  0  0.876439  0
H  H116  1  0.81006779  0.41802745  0.29372736  1  0.612705  0  0.324779  0.406159  0  0.876411  0
H  H117  1  0.41800854  0.60788316  0.46018933  1  0.631341  0  0.324591  0.406645  0  0.876232  0
H  H118  1  0.39190614  0.80992815  0.12676979  1  0.60053  0  0.324698  0.406492  0  0.876448  0
H  H119  1  0.18993009  0.58197194  0.79372662  1  0.612668  0  0.324784  0.406159  0  0.876473  0
H  H120  1  0.76485098  0.38604563  0.89746873  1  0.661861  0  0.295522  0.39141  0  0.942022  0
H  H121  1  0.61406998  0.37895907  0.56406539  1  0.648294  0  0.294986  0.390801  0  0.942958  0
H  H122  1  0.62138024  0.23542609  0.23040577  1  0.656761  0  0.295271  0.391304  0  0.942349  0
H  H123  1  0.23514930  0.61395457  0.39747080  1  0.661895  0  0.295481  0.391366  0  0.942062  0
H  H124  1  0.38592873  0.62104027  0.06406543  1  0.648289  0  0.295007  0.39082  0  0.942915  0
H  H125  1  0.37861918  0.76457272  0.73040659  1  0.65676  0  0.29528  0.391324  0  0.942333  0
H  H126  1  0.72734877  0.41314597  0.95343256  1  0.640468  0  0.306533  0.406193  0  0.901304  0
H  H127  1  0.58683540  0.31429720  0.61998143  1  0.611456  0  0.306445  0.406148  0  0.901127  0
H  H128  1  0.68582030  0.27275726  0.28649929  1  0.64162  0  0.30586  0.404959  0  0.902905  0
H  H129  1  0.27265408  0.58685481  0.45343333  1  0.640421  0  0.306527  0.406183  0  0.901308  0
H  H130  1  0.41316413  0.68570035  0.11998188  1  0.611494  0  0.306481  0.406173  0  0.901103  0
H  H131  1  0.31417883  0.72723984  0.78649952  1  0.641218  0  0.305844  0.404938  0  0.902938  0
C  C132  1  0.90783077  0.99156456  0.09187120  1  -0.180359  0  -0.048417  -0.094373  0  4.105122  0
C  C133  1  0.00845763  0.91616895  0.75819327  1  -0.264245  0  -0.048345  -0.093759  0  4.104369  0
C  C134  1  0.08386235  0.09223681  0.42497846  1  -0.2699  0  -0.048739  -0.094574  0  4.105037  0
C  C135  1  0.09216823  0.00843555  0.59187154  1  -0.180292  0  -0.048402  -0.09447  0  4.105264  0
C  C136  1  0.99154490  0.08382987  0.25819533  1  -0.264237  0  -0.048407  -0.093892  0  4.104434  0
C  C137  1  0.91613799  0.90776335  0.92497607  1  -0.269731  0  -0.048738  -0.094505  0  4.104961  0
C  C138  1  0.90995205  0.92301005  0.09938144  1  -0.287562  0  -0.049219  -0.097797  0  4.111999  0
C  C139  1  0.07699834  0.98684824  0.76570002  1  -0.208705  0  -0.049412  -0.097575  0  4.11085  0
C  C140  1  0.01315966  0.09006712  0.43246359  1  -0.216104  0  -0.049164  -0.097344  0  4.110835  0
C  C141  1  0.09004735  0.07698864  0.59938307  1  -0.287547  0  -0.049233  -0.097722  0  4.111993  0
C  C142  1  0.92300325  0.01314844  0.26570009  1  -0.208666  0  -0.04944  -0.097653  0  4.110832  0
C  C143  1  0.98683945  0.90993119  0.93245944  1  -0.216276  0  -0.049062  -0.097263  0  4.110637  0
C  C144  1  0.94968974  0.14135921  0.08435185  1  -0.246581  0  -0.013939  -0.049626  0  4.030395  0
C  C145  1  0.85862487  0.80830440  0.75072503  1  -0.182991  0  -0.013563  -0.048637  0  4.029656  0
C  C146  1  0.19189638  0.05049195  0.41764695  1  -0.13066  0  -0.013359  -0.048538  0  4.029876  0
C  C147  1  0.05030925  0.85864091  0.58434907  1  -0.246564  0  -0.013893  -0.049612  0  4.030392  0
C  C148  1  0.14137350  0.19169446  0.25072734  1  -0.183303  0  -0.0135  -0.048554  0  4.029598  0
C  C149  1  0.80810528  0.94950895  0.91764562  1  -0.13038  0  -0.013384  -0.048598  0  4.029912  0
C  C150  1  0.86860216  0.10184750  0.09005748  1  -0.042192  0  -0.015018  -0.050072  0  4.002584  0
C  C151  1  0.89803692  0.76664510  0.75655257  1  -0.045198  0  -0.01494  -0.050359  0  4.000948  0
C  C152  1  0.23342456  0.13157098  0.42341470  1  -0.080566  0  -0.015145  -0.050104  0  4.000208  0
C  C153  1  0.13139692  0.89815151  0.59005142  1  -0.04191  0  -0.015032  -0.050093  0  4.002478  0
C  C154  1  0.10195888  0.23335117  0.25655614  1  -0.044892  0  -0.014946  -0.050501  0  4.000977  0
C  C155  1  0.76657599  0.86843000  0.92341736  1  -0.080632  0  -0.01513  -0.050081  0  4.000257  0
C  C156  1  0.87668768  0.77716445  0.12172186  1  -0.136155  0  -0.01603  -0.055717  0  4.014081  0
C  C157  1  0.22274209  0.09941368  0.78857983  1  -0.12416  0  -0.016285  -0.056284  0  4.015041  0
C  C158  1  0.90069833  0.12337461  0.45520110  1  -0.072155  0  -0.015973  -0.055514  0  4.013978  0
C  C159  1  0.12330695  0.22283594  0.62171933  1  -0.132279  0  -0.016014  -0.055722  0  4.014239  0
C  C160  1  0.77725940  0.90058519  0.28858227  1  -0.123944  0  -0.016341  -0.05639  0  4.015093  0
C  C161  1  0.09930423  0.87662647  0.95520086  1  -0.072126  0  -0.015993  -0.055484  0  4.013887  0
C  C162  1  0.95799795  0.82175822  0.12185099  1  -0.101756  0  -0.013581  -0.049916  0  4.027653  0
C  C163  1  0.17816389  0.13616110  0.78853768  1  -0.119698  0  -0.013715  -0.050011  0  4.026203  0
C  C164  1  0.86395404  0.04206111  0.45534780  1  -0.190153  0  -0.01355  -0.050028  0  4.027392  0
C  C165  1  0.04199868  0.17824120  0.62184785  1  -0.101992  0  -0.013547  -0.049863  0  4.02757  0
C  C166  1  0.82183760  0.86383776  0.28854180  1  -0.119969  0  -0.013707  -0.049984  0  4.026293  0
C  C167  1  0.13604792  0.95794056  0.95534748  1  -0.190252  0  -0.01357  -0.05011  0  4.027544  0
C  C168  1  0.11999432  0.39028405  0.07581699  1  -0.010662  0  -0.020468  -0.044299  0  3.981929  0
C  C169  1  0.60971831  0.72967645  0.74228427  1  -0.046801  0  -0.020262  -0.043327  0  3.983612  0
C  C170  1  0.27064434  0.88023996  0.40918212  1  0.022445  0  -0.020993  -0.043935  0  3.983253  0
C  C171  1  0.88000724  0.60971451  0.57581667  1  -0.010684  0  -0.020494  -0.044452  0  3.982116  0
C  C172  1  0.39028253  0.27032611  0.24228320  1  -0.04702  0  -0.020231  -0.043344  0  3.983559  0
C  C173  1  0.72936179  0.11976368  0.90918155  1  0.022286  0  -0.020957  -0.043782  0  3.983189  0
C  C174  1  0.05442746  0.36313560  0.11795584  1  -0.072727  0  -0.079302  -0.074908  0  3.96014  0
C  C175  1  0.63694004  0.69142031  0.78452349  1  0.038265  0  -0.078634  -0.074828  0  3.961827  0
C  C176  1  0.30899243  0.94581704  0.45130878  1  -0.088284  0  -0.079091  -0.074756  0  3.960947  0
C  C177  1  0.94557472  0.63686342  0.61795564  1  -0.073014  0  -0.07929  -0.074845  0  3.960086  0
C  C178  1  0.36306001  0.30858309  0.28452274  1  0.038386  0  -0.078638  -0.074789  0  3.9617  0
C  C179  1  0.69101278  0.05418551  0.95130875  1  -0.088046  0  -0.079039  -0.074735  0  3.960887  0
C  C180  1  0.07120902  0.25543609  0.03834305  1  -0.04411  0  -0.098061  -0.13924  0  3.970627  0
C  C181  1  0.74451101  0.81574012  0.70472429  1  -0.012503  0  -0.097228  -0.137498  0  3.971552  0
C  C182  1  0.18448391  0.92892446  0.37172649  1  -0.061507  0  -0.097812  -0.137438  0  3.971156  0
C  C183  1  0.92878949  0.74456136  0.53834109  1  -0.042384  0  -0.097922  -0.139027  0  3.970674  0
C  C184  1  0.25548827  0.18425983  0.20472695  1  -0.012276  0  -0.097192  -0.137376  0  3.971384  0
C  C185  1  0.81552110  0.07107820  0.87172628  1  -0.062143  0  -0.097746  -0.137257  0  3.971115  0
C  C186  1  0.00557830  0.22744881  0.08095221  1  -0.03021  0  -0.00835  0.089543  0  4.026778  0
C  C187  1  0.77255772  0.77818686  0.74735706  1  0.02576  0  -0.008673  0.088776  0  4.026735  0
C  C188  1  0.22212053  0.99462397  0.41427505  1  -0.025473  0  -0.008213  0.088462  0  4.028919  0
C  C189  1  0.99441831  0.77254955  0.58095134  1  -0.031824  0  -0.008492  0.08938  0  4.026885  0
C  C190  1  0.22744086  0.22181282  0.24735955  1  0.025709  0  -0.008693  0.088764  0  4.026744  0
C  C191  1  0.77788253  0.00537657  0.91427245  1  -0.025759  0  -0.008191  0.088488  0  4.02895  0
C  C192  1  0.99805960  0.28257627  0.12079766  1  0.002714  0  -0.090467  -0.134956  0  3.991237  0
C  C193  1  0.71750075  0.71565608  0.78732778  1  -0.055048  0  -0.090913  -0.134955  0  3.990487  0
C  C194  1  0.28475199  0.00215719  0.45415221  1  -0.05673  0  -0.0903  -0.134239  0  3.990349  0
C  C195  1  0.00194161  0.71742475  0.62079753  1  0.002557  0  -0.090484  -0.134985  0  3.991163  0
C  C196  1  0.28249947  0.28434509  0.28732882  1  -0.055043  0  -0.090941  -0.134992  0  3.990478  0
C  C197  1  0.71525212  0.99784543  0.95414952  1  -0.056934  0  -0.090426  -0.13448  0  3.990523  0
C  C198  1  0.12766993  0.33583826  0.03585562  1  -0.012132  0  -0.0831  -0.079008  0  3.977047  0
C  C199  1  0.66409808  0.79175994  0.70227004  1  -0.086369  0  -0.083685  -0.080738  0  3.979121  0
C  C200  1  0.20846428  0.87247722  0.36924895  1  -0.045056  0  -0.082938  -0.07984  0  3.978131  0
C  C201  1  0.87232917  0.66415860  0.53585418  1  -0.01225  0  -0.083043  -0.078927  0  3.977057  0
C  C202  1  0.33590296  0.20824238  0.20227042  1  -0.086202  0  -0.083702  -0.080773  0  3.979077  0
C  C203  1  0.79154029  0.12752381  0.86924659  1  -0.04435  0  -0.082997  -0.08008  0  3.978164  0
C  C204  1  0.18371340  0.47549812  0.07372409  1  1.561215  0  0.217578  0.590606  0  4.192467  0
C  C205  1  0.52449305  0.70808953  0.74022795  1  1.563338  0  0.216656  0.589888  0  4.192344  0
C  C206  1  0.29221852  0.81658194  0.40719200  1  1.558933  0  0.217652  0.591008  0  4.191972  0
C  C207  1  0.81628710  0.52450357  0.57372526  1  1.561056  0  0.217551  0.59066  0  4.192307  0
C  C208  1  0.47550896  0.29191599  0.24022805  1  1.564035  0  0.216711  0.589864  0  4.192502  0
C  C209  1  0.70778444  0.18341972  0.90719171  1  1.558905  0  0.217654  0.590857  0  4.191916  0
C  C210  1  0.71634491  0.20267388  0.09805129  1  0.036603  0  -0.019948  -0.044458  0  3.993702  0
C  C211  1  0.79703842  0.51350294  0.76486611  1  -0.000944  0  -0.019993  -0.042795  0  3.991788  0
C  C212  1  0.48645921  0.28386337  0.43165102  1  0.000895  0  -0.019973  -0.043249  0  3.992454  0
C  C213  1  0.28365543  0.79732696  0.59804590  1  0.036647  0  -0.019866  -0.044433  0  3.993733  0
C  C214  1  0.20295895  0.48649487  0.26486546  1  -0.000869  0  -0.020072  -0.042965  0  3.991744  0
C  C215  1  0.51354077  0.71613819  0.93165381  1  0.000629  0  -0.019975  -0.043152  0  3.99261  0
C  C216  1  0.78197149  0.23460621  0.05544116  1  -0.028476  0  -0.075042  -0.074931  0  3.945761  0
C  C217  1  0.76510364  0.54714307  0.72219668  1  -0.103824  0  -0.074739  -0.074701  0  3.945072  0
C  C218  1  0.45284300  0.21831016  0.38897242  1  -0.058441  0  -0.074947  -0.074447  0  3.94571  0
C  C219  1  0.21803238  0.76539415  0.55543419  1  -0.02873  0  -0.075061  -0.074831  0  3.945939  0
C  C220  1  0.23489327  0.45285205  0.22219767  1  -0.104587  0  -0.074692  -0.074654  0  3.945323  0
C  C221  1  0.54715793  0.78168835  0.88897466  1  -0.058219  0  -0.075007  -0.074556  0  3.945919  0
C  C222  1  0.83118481  0.20183160  0.05241120  1  0.024613  0  -0.081374  -0.11446  0  3.949283  0
C  C223  1  0.79788831  0.62913051  0.71907612  1  0.07547  0  -0.081824  -0.115256  0  3.948055  0
C  C224  1  0.37088039  0.16907019  0.38587385  1  -0.009419  0  -0.0822  -0.116145  0  3.949816  0
C  C225  1  0.16881566  0.79816597  0.55240401  1  0.024765  0  -0.08136  -0.114406  0  3.949177  0
C  C226  1  0.20210821  0.37086603  0.21907818  1  0.075685  0  -0.081843  -0.115265  0  3.948264  0
C  C227  1  0.62911934  0.83092951  0.88587767  1  -0.009603  0  -0.082111  -0.115986  0  3.949755  0
C  C228  1  0.81691018  0.13692237  0.09254576  1  -0.019421  0  -0.004217  0.095007  0  4.014688  0
C  C229  1  0.86280982  0.67983735  0.75918523  1  -0.047075  0  -0.004517  0.094622  0  4.013207  0
C  C230  1  0.32020610  0.18323301  0.42605471  1  -0.053021  0  -0.004281  0.09546  0  4.012815  0
C  C231  1  0.18308795  0.86307448  0.59253944  1  -0.019418  0  -0.004292  0.095062  0  4.014484  0
C  C232  1  0.13718531  0.32016063  0.25918772  1  -0.047349  0  -0.004599  0.094642  0  4.012927  0
C  C233  1  0.67979425  0.81676715  0.92605871  1  -0.052844  0  -0.004431  0.095251  0  4.013066  0
C  C234  1  0.75079619  0.10506791  0.13492123  1  -0.014057  0  -0.097091  -0.139822  0  3.980799  0
C  C235  1  0.89455919  0.64559961  0.80170262  1  -0.05708  0  -0.097372  -0.139914  0  3.979943  0
C  C236  1  0.35439285  0.24917510  0.46862283  1  -0.058961  0  -0.097148  -0.140867  0  3.980372  0
C  C237  1  0.24920431  0.89493592  0.63491209  1  -0.0141  0  -0.097082  -0.139981  0  3.980776  0
C  C238  1  0.10543545  0.35439890  0.30170298  1  -0.056882  0  -0.097303  -0.139799  0  3.979727  0
C  C239  1  0.64560684  0.75082782  0.96862835  1  -0.05934  0  -0.09704  -0.140768  0  3.980463  0
C  C240  1  0.70132251  0.13771499  0.13789791  1  -0.085044  0  -0.083  -0.083216  0  3.978477  0
C  C241  1  0.86190587  0.56349216  0.80477528  1  -0.045615  0  -0.0827  -0.083394  0  3.978348  0
C  C242  1  0.43650003  0.29870379  0.47163193  1  -0.015444  0  -0.081969  -0.082006  0  3.977274  0
C  C243  1  0.29867653  0.86228617  0.63789240  1  -0.084933  0  -0.082999  -0.083275  0  3.978319  0
C  C244  1  0.13809100  0.43650619  0.30477554  1  -0.045677  0  -0.082655  -0.0833  0  3.978292  0
C  C245  1  0.56349924  0.70129750  0.97163783  1  -0.016036  0  -0.082079  -0.082114  0  3.977255  0
C  C246  1  0.66255525  0.23608409  0.09960141  1  1.485927  0  0.21747  0.590002  0  4.146875  0
C  C247  1  0.76379891  0.42632103  0.76644867  1  1.526705  0  0.217279  0.588682  0  4.146676  0
C  C248  1  0.57365934  0.33764878  0.43314999  1  1.543437  0  0.217802  0.589766  0  4.145287  0
C  C249  1  0.33744592  0.76391697  0.59960358  1  1.485307  0  0.217519  0.590005  0  4.14685  0
C  C250  1  0.23620038  0.57367692  0.26644839  1  1.526675  0  0.217318  0.588795  0  4.146472  0
C  C251  1  0.42634132  0.66235108  0.93315265  1  1.543665  0  0.217699  0.589455  0  4.145566  0
C  C252  1  0.72788972  0.52451806  0.14567946  1  0.024394  0  -0.020413  -0.048175  0  3.975147  0
C  C253  1  0.47546549  0.20345340  0.81243540  1  0.004774  0  -0.019458  -0.046275  0  3.973614  0
C  C254  1  0.79657678  0.27196491  0.47902335  1  0.009802  0  -0.020037  -0.04727  0  3.974297  0
C  C255  1  0.27210578  0.47548251  0.64567724  1  0.025052  0  -0.020409  -0.048025  0  3.974979  0
C  C256  1  0.52453487  0.79654662  0.31243297  1  0.004917  0  -0.019454  -0.046331  0  3.973529  0
C  C257  1  0.20341919  0.72803246  0.97902278  1  0.009656  0  -0.019979  -0.04707  0  3.974098  0
C  C258  1  0.79782400  0.56665379  0.18271697  1  -0.010957  0  -0.077491  -0.070939  0  3.971017  0
C  C259  1  0.43332548  0.23122500  0.84951530  1  -0.070816  0  -0.078017  -0.071533  0  3.97119  0
C  C260  1  0.76882296  0.20205433  0.51607258  1  -0.065959  0  -0.078348  -0.072431  0  3.972592  0
C  C261  1  0.20216864  0.43334556  0.68271270  1  -0.011448  0  -0.07749  -0.07107  0  3.971128  0
C  C262  1  0.56667403  0.76877282  0.34951208  1  -0.070982  0  -0.077975  -0.0714  0  3.971203  0
C  C263  1  0.23117240  0.79794005  0.01607470  1  -0.066001  0  -0.078346  -0.072404  0  3.972656  0
C  C264  1  0.84616814  0.64842910  0.17602810  1  -0.049877  0  -0.084536  -0.121587  0  3.960875  0
C  C265  1  0.35150347  0.19766273  0.84298918  1  0.040651  0  -0.084465  -0.121089  0  3.960769  0
C  C266  1  0.80241640  0.15383300  0.50950118  1  0.040014  0  -0.084649  -0.121698  0  3.961116  0
C  C267  1  0.15382508  0.35156966  0.67602144  1  -0.050154  0  -0.084634  -0.121589  0  3.960883  0
C  C268  1  0.64849572  0.80233540  0.34298904  1  0.040581  0  -0.084526  -0.121372  0  3.960953  0
C  C269  1  0.19758117  0.84616123  0.00950259  1  0.039957  0  -0.084647  -0.121699  0  3.961315  0
C  C270  1  0.82656283  0.69091604  0.13108099  1  -0.051874  0  -0.004326  0.09783  0  4.011308  0
C  C271  1  0.30898178  0.13551557  0.79809056  1  -0.025441  0  -0.004385  0.096477  0  4.01355  0
C  C272  1  0.86455274  0.17348793  0.46458941  1  0.007849  0  -0.00422  0.097686  0  4.01178  0
C  C273  1  0.17343383  0.30908336  0.63107644  1  -0.055739  0  -0.004287  0.097683  0  4.011496  0
C  C274  1  0.69102107  0.86448402  0.29809138  1  -0.025406  0  -0.004316  0.096688  0  4.013412  0
C  C275  1  0.13544697  0.82651085  0.96458793  1  0.008065  0  -0.004217  0.097616  0  4.011779  0
C  C276  1  0.75579925  0.64852641  0.09453969  1  -0.029233  0  -0.095963  -0.13769  0  3.968664  0
C  C277  1  0.35137805  0.10716273  0.76154403  1  0.015471  0  -0.096071  -0.13661  0  3.970359  0
C  C278  1  0.89282760  0.24419178  0.42799092  1  -0.039388  0  -0.096046  -0.137947  0  3.969433  0
C  C279  1  0.24419626  0.35147616  0.59453525  1  -0.030822  0  -0.095926  -0.137559  0  3.968645  0
C  C280  1  0.64862514  0.89283853  0.26154466  1  0.016174  0  -0.096063  -0.136627  0  3.970235  0
C  C281  1  0.10716906  0.75580589  0.92799002  1  -0.039797  0  -0.096087  -0.13795  0  3.96932  0
C  C282  1  0.70731763  0.56671011  0.10160989  1  -0.022468  0  -0.082434  -0.077656  0  3.98027  0
C  C283  1  0.43322000  0.14059364  0.76845196  1  -0.037957  0  -0.082201  -0.078456  0  3.980163  0
C  C284  1  0.85938580  0.29259572  0.43497885  1  -0.041715  0  -0.082398  -0.078087  0  3.979394  0
C  C285  1  0.29267828  0.43329104  0.60160832  1  -0.020454  0  -0.082487  -0.077836  0  3.980403  0
C  C286  1  0.56678283  0.85940902  0.26845195  1  -0.038878  0  -0.082168  -0.078421  0  3.980169  0
C  C287  1  0.14061117  0.70740163  0.93497864  1  -0.041471  0  -0.082437  -0.078159  0  3.979479  0
C  C288  1  0.67599492  0.43717992  0.15465530  1  1.540098  0  0.223265  0.609576  0  4.130315  0
C  C289  1  0.56282075  0.23896789  0.82127930  1  1.506387  0  0.223216  0.608076  0  4.131408  0
C  C290  1  0.76107613  0.32381741  0.48800541  1  1.521811  0  0.223476  0.609654  0  4.129048  0
C  C291  1  0.32400423  0.56282010  0.65465449  1  1.540246  0  0.2233  0.609597  0  4.130146  0
C  C292  1  0.43717918  0.76103464  0.32127670  1  1.506246  0  0.223297  0.608249  0  4.13104  0
C  C293  1  0.23892119  0.67618068  0.98800457  1  1.521788  0  0.223447  0.609566  0  4.129038  0
C  C294  1  0.13222716  0.75287646  0.16207191  1  -0.052797  0  -0.019601  -0.040342  0  3.969382  0
C  C295  1  0.24704401  0.37934998  0.82891888  1  0.052831  0  -0.020359  -0.042537  0  3.970587  0
C  C296  1  0.62079124  0.86781893  0.49551276  1  -0.054115  0  -0.018905  -0.040418  0  3.969601  0
C  C297  1  0.86777495  0.24712887  0.66207144  1  -0.052732  0  -0.019502  -0.040252  0  3.969178  0
C  C298  1  0.75295225  0.62065004  0.32892485  1  0.05326  0  -0.020243  -0.042454  0  3.970547  0
C  C299  1  0.37921229  0.13218534  0.99550971  1  -0.05377  0  -0.018936  -0.040413  0  3.96964  0
C  C300  1  0.13770347  0.82112898  0.19065023  1  -0.019983  0  -0.085172  -0.084725  0  3.978248  0
C  C301  1  0.17875293  0.31653810  0.85741560  1  -0.039895  0  -0.084584  -0.084253  0  3.977206  0
C  C302  1  0.68355533  0.86237331  0.52415334  1  -0.03074  0  -0.085117  -0.085112  0  3.977079  0
C  C303  1  0.86229945  0.17887764  0.69064991  1  -0.019797  0  -0.085215  -0.084823  0  3.978248  0
C  C304  1  0.82124459  0.68346069  0.35742064  1  -0.04025  0  -0.084573  -0.084241  0  3.977129  0
C  C305  1  0.31644903  0.13763065  0.02415041  1  -0.030387  0  -0.085007  -0.085013  0  3.977119  0
C  C306  1  0.08113434  0.84311496  0.17673614  1  -0.045374  0  -0.096623  -0.13745  0  3.970265  0
C  C307  1  0.15682155  0.23799773  0.84345426  1  -0.085105  0  -0.096331  -0.136139  0  3.969126  0
C  C308  1  0.76211083  0.91899648  0.51031958  1  -0.026942  0  -0.096406  -0.137061  0  3.97043  0
C  C309  1  0.91886575  0.15688828  0.67673261  1  -0.044831  0  -0.09658  -0.137505  0  3.970179  0
C  C310  1  0.84317533  0.76200168  0.34346162  1  -0.085035  0  -0.096343  -0.13613  0  3.969337  0
C  C311  1  0.23789285  0.08100506  0.01032047  1  -0.02744  0  -0.096447  -0.137145  0  3.970384  0
C  C312  1  0.01690828  0.79660784  0.13459475  1  -0.014512  0  -0.009077  0.087724  0  4.019589  0
C  C313  1  0.20331956  0.22025126  0.80130664  1  0.009971  0  -0.00854  0.088353  0  4.017784  0
C  C314  1  0.77988245  0.98320334  0.46814835  1  -0.062672  0  -0.008777  0.088212  0  4.019103  0
C  C315  1  0.98308926  0.20339481  0.63459031  1  -0.014673  0  -0.009071  0.087866  0  4.019512  0
C  C316  1  0.79667914  0.77974835  0.30131236  1  0.009933  0  -0.008551  0.088217  0  4.018137  0
C  C317  1  0.22012036  0.01679853  0.96814756  1  -0.062513  0  -0.008768  0.088328  0  4.019077  0
C  C318  1  0.01251717  0.72896818  0.10508072  1  -0.097778  0  -0.087074  -0.126422  0  3.972743  0
C  C319  1  0.27103342  0.28356404  0.77191478  1  -0.07902  0  -0.086642  -0.126647  0  3.972176  0
C  C320  1  0.71664454  0.98757532  0.43856669  1  0.054946  0  -0.086892  -0.127266  0  3.972531  0
C  C321  1  0.98748252  0.27103436  0.60507614  1  -0.098062  0  -0.087021  -0.126344  0  3.972914  0
C  C322  1  0.72896565  0.71643723  0.27191997  1  -0.078216  0  -0.086737  -0.126684  0  3.972358  0
C  C323  1  0.28335953  0.01242732  0.93856706  1  0.054958  0  -0.086879  -0.127345  0  3.972393  0
C  C324  1  0.06944928  0.70738985  0.11877090  1  0.06312  0  -0.078004  -0.077927  0  3.960629  0
C  C325  1  0.29261334  0.36205972  0.78570501  1  -0.024626  0  -0.07824  -0.076899  0  3.960938  0
C  C326  1  0.63813651  0.93065296  0.45224645  1  -0.049707  0  -0.078775  -0.078353  0  3.961881  0
C  C327  1  0.93055302  0.29261525  0.61876855  1  0.0631  0  -0.078109  -0.078046  0  3.960544  0
C  C328  1  0.70738414  0.63794110  0.28570886  1  -0.025437  0  -0.078296  -0.076901  0  3.961018  0
C  C329  1  0.36186639  0.06935086  0.95224447  1  -0.050309  0  -0.078817  -0.078388  0  3.961837  0
C  C330  1  0.19329384  0.72946606  0.17754260  1  1.578652  0  0.219016  0.593888  0  4.187231  0
C  C331  1  0.27036963  0.46383007  0.84428623  1  1.555384  0  0.218795  0.594589  0  4.18651  0
C  C332  1  0.53629913  0.80665411  0.51079996  1  1.54765  0  0.218562  0.594342  0  4.187092  0
C  C333  1  0.80670728  0.27053822  0.67754239  1  1.578698  0  0.218954  0.593834  0  4.187757  0
C  C334  1  0.72963303  0.53616975  0.34428745  1  1.555491  0  0.218757  0.594554  0  4.186559  0
C  C335  1  0.46370469  0.19334935  0.01079536  1  1.547654  0  0.218694  0.594442  0  4.186921  0
S  S336  1  0.99486371  0.08283413  0.07982545  1  0.194428  0  0.047343  0.055646  0  2.975346  0
S  S337  1  0.91720542  0.91199229  0.74620628  1  0.225587  0  0.047096  0.055074  0  2.975876  0
S  S338  1  0.08820382  0.00527439  0.41292135  1  0.185581  0  0.047001  0.055229  0  2.975426  0
S  S339  1  0.00513312  0.91716504  0.57982729  1  0.19457  0  0.047324  0.055648  0  2.975327  0
S  S340  1  0.08279507  0.08800753  0.24620966  1  0.225482  0  0.0471  0.05512  0  2.976116  0
S  S341  1  0.91179820  0.99472512  0.91291825  1  0.185518  0  0.04698  0.055201  0  2.97551  0
S  S342  1  0.82065554  0.99721242  0.09112358  1  0.220687  0  0.055399  0.075041  0  2.883517  0
S  S343  1  0.00268757  0.82326386  0.75774752  1  0.167659  0  0.055655  0.075101  0  2.881843  0
S  S344  1  0.17667091  0.17946572  0.42438157  1  0.181035  0  0.05561  0.075037  0  2.881278  0
S  S345  1  0.17934177  0.00278422  0.59112124  1  0.220379  0  0.055382  0.075022  0  2.88359  0
S  S346  1  0.99730934  0.17673233  0.25774937  1  0.167627  0  0.055684  0.075209  0  2.881931  0
S  S347  1  0.82332870  0.82053312  0.92438499  1  0.180987  0  0.055611  0.075018  0  2.881134  0
S  S348  1  0.82529039  0.82870791  0.10553691  1  0.176637  0  0.048827  0.062104  0  2.897199  0
S  S349  1  0.17129044  0.99651652  0.77213917  1  0.179536  0  0.0487  0.062169  0  2.897943  0
S  S350  1  0.00355237  0.17474076  0.43871232  1  0.179233  0  0.049109  0.062239  0  2.897108  0
S  S351  1  0.17470826  0.17129359  0.60553660  1  0.17664  0  0.048802  0.062059  0  2.897164  0
S  S352  1  0.82871256  0.00348391  0.27214095  1  0.179589  0  0.04879  0.062264  0  2.897942  0
S  S353  1  0.99644727  0.82525805  0.93871476  1  0.179197  0  0.049078  0.062181  0  2.896991  0
S  S354  1  0.99998581  0.92260099  0.10226938  1  0.192875  0  0.052918  0.067025  0  2.97755  0
S  S355  1  0.07737844  0.07729683  0.76872286  1  0.186823  0  0.052835  0.066548  0  2.976012  0
S  S356  1  0.92272709  0.00003078  0.43554981  1  0.200346  0  0.052649  0.066411  0  2.976004  0
S  S357  1  0.00001064  0.07739653  0.60227222  1  0.193066  0  0.052932  0.067022  0  2.97761  0
S  S358  1  0.92261977  0.92269704  0.26872273  1  0.186706  0  0.052864  0.066642  0  2.975984  0
S  S359  1  0.07727336  0.99996826  0.93555020  1  0.200387  0  0.052681  0.066476  0  2.97603  0
O  O360  1  0.17636633  0.52553105  0.10901081  1  -1.162686  0  -0.309116  -0.546155  0  2.319325  0
O  O361  1  0.47454095  0.65064642  0.77551034  1  -1.157905  0  -0.308376  -0.545297  0  2.318473  0
O  O362  1  0.34952295  0.82395906  0.44260743  1  -1.158631  0  -0.309072  -0.545636  0  2.318009  0
O  O363  1  0.82363100  0.47446971  0.60901945  1  -1.16257  0  -0.30919  -0.5462  0  2.319097  0
O  O364  1  0.52545983  0.34935417  0.27551044  1  -1.158016  0  -0.308361  -0.54519  0  2.318595  0
O  O365  1  0.65047817  0.17604241  0.94260358  1  -1.158602  0  -0.309039  -0.54556  0  2.318035  0
O  O366  1  0.24390287  0.49301672  0.03724157  1  -1.194844  0  -0.334938  -0.575048  0  2.370555  0
O  O367  1  0.50685088  0.75071990  0.70382498  1  -1.202245  0  -0.334993  -0.574895  0  2.370245  0
O  O368  1  0.24965770  0.75635771  0.37071627  1  -1.197481  0  -0.334733  -0.575667  0  2.371803  0
O  O369  1  0.75609949  0.50698100  0.53724261  1  -1.194795  0  -0.33487  -0.575002  0  2.37064  0
O  O370  1  0.49314794  0.24928258  0.20382279  1  -1.202784  0  -0.335051  -0.574939  0  2.370213  0
O  O371  1  0.75034368  0.24364548  0.87071645  1  -1.197539  0  -0.334745  -0.5756  0  2.371642  0
O  O372  1  0.60991907  0.21452678  0.14543864  1  -1.152422  0  -0.309796  -0.547502  0  2.291655  0
O  O373  1  0.78547153  0.39533601  0.81229286  1  -1.162656  0  -0.310135  -0.54753  0  2.290792  0
O  O374  1  0.60481704  0.39028074  0.47897502  1  -1.176111  0  -0.310064  -0.547853  0  2.291254  0
O  O375  1  0.39007969  0.78547467  0.64544336  1  -1.151761  0  -0.30982  -0.547491  0  2.291601  0
O  O376  1  0.21452818  0.60466157  0.31229391  1  -1.162628  0  -0.310118  -0.547566  0  2.290647  0
O  O377  1  0.39518344  0.60971935  0.97897871  1  -1.175932  0  -0.310031  -0.547725  0  2.291356  0
O  O378  1  0.66752887  0.28629019  0.05692615  1  -1.195498  0  -0.314557  -0.572939  0  2.372241  0
O  O379  1  0.71365341  0.38102606  0.72377295  1  -1.191201  0  -0.314347  -0.572812  0  2.372525  0
O  O380  1  0.61879551  0.33260926  0.39041178  1  -1.194078  0  -0.314888  -0.573752  0  2.371609  0
O  O381  1  0.33247509  0.71370906  0.55692989  1  -1.195502  0  -0.314623  -0.572967  0  2.372305  0
O  O382  1  0.28634445  0.61897121  0.22377222  1  -1.191073  0  -0.314375  -0.572825  0  2.372454  0
O  O383  1  0.38120609  0.66738754  0.89041235  1  -1.194192  0  -0.314805  -0.573552  0  2.371647  0
O  O384  1  0.61591212  0.40027409  0.11518563  1  -1.181837  0  -0.314871  -0.562562  0  2.336858  0
O  O385  1  0.59968299  0.21571701  0.78183859  1  -1.169289  0  -0.314375  -0.561838  0  2.337375  0
O  O386  1  0.78442177  0.38405119  0.44867849  1  -1.15557  0  -0.314917  -0.562607  0  2.336929  0
O  O387  1  0.38408865  0.59972531  0.61518686  1  -1.181834  0  -0.314847  -0.562555  0  2.336852  0
O  O388  1  0.40031529  0.78428403  0.28183877  1  -1.169272  0  -0.314371  -0.561824  0  2.337295  0
O  O389  1  0.21557982  0.61594775  0.94867676  1  -1.15557  0  -0.314962  -0.562645  0  2.336914  0
O  O390  1  0.69125233  0.40125805  0.19905828  1  -1.196747  0  -0.320981  -0.587895  0  2.333021  0
O  O391  1  0.59882563  0.29028384  0.86559566  1  -1.191266  0  -0.321619  -0.587498  0  2.331229  0
O  O392  1  0.70976364  0.30845091  0.53232173  1  -1.195968  0  -0.321441  -0.588255  0  2.330197  0
O  O393  1  0.30875122  0.59874382  0.69905978  1  -1.196876  0  -0.321014  -0.587953  0  2.332963  0
O  O394  1  0.40117824  0.70972305  0.36559847  1  -1.191107  0  -0.321706  -0.587661  0  2.330968  0
O  O395  1  0.29023499  0.69154847  0.03231937  1  -1.195872  0  -0.321345  -0.588189  0  2.33031  0
O  O396  1  0.19308245  0.67483797  0.14346732  1  -1.175887  0  -0.305821  -0.55251  0  2.36612  0
O  O397  1  0.32525595  0.51824115  0.81039765  1  -1.170702  0  -0.30645  -0.552951  0  2.364481  0
O  O398  1  0.48194698  0.80696299  0.47669471  1  -1.168096  0  -0.306176  -0.553025  0  2.365535  0
O  O399  1  0.80691888  0.32516606  0.64346551  1  -1.17613  0  -0.305673  -0.55232  0  2.366346  0
O  O400  1  0.67474847  0.48175997  0.31039591  1  -1.170815  0  -0.306443  -0.55294  0  2.364454  0
O  O401  1  0.51805511  0.19303754  0.97669093  1  -1.168348  0  -0.306179  -0.553024  0  2.365518  0
O  O402  1  0.24148385  0.76736776  0.22455272  1  -1.182695  0  -0.332867  -0.575136  0  2.348076  0
O  O403  1  0.23216983  0.47416321  0.89103569  1  -1.180309  0  -0.332277  -0.575575  0  2.34705  0
O  O404  1  0.52589288  0.75826385  0.55767957  1  -1.185408  0  -0.332576  -0.57549  0  2.347565  0
O  O405  1  0.75851738  0.23263645  0.72455100  1  -1.182635  0  -0.332929  -0.57522  0  2.348278  0
O  O406  1  0.76783252  0.52583492  0.39103606  1  -1.180389  0  -0.332271  -0.575573  0  2.347123  0
O  O407  1  0.47411282  0.24174190  0.05767342  1  -1.185178  0  -0.332692  -0.575558  0  2.347549  0
O  O408  1  0.62773523  0.39639476  0.98319342  1  -1.251812  0  -0.569589  -0.77084  0  2.017538  0
O  O409  1  0.60358158  0.23140513  0.64977187  1  -1.23292  0  -0.569582  -0.770527  0  2.017629  0
O  O410  1  0.76860495  0.37218722  0.31663427  1  -1.24242  0  -0.569913  -0.77011  0  2.017602  0
O  O411  1  0.37226041  0.60359572  0.48319151  1  -1.251936  0  -0.569635  -0.77088  0  2.017482  0
O  O412  1  0.39641542  0.76859395  0.14977257  1  -1.232848  0  -0.569579  -0.770547  0  2.017674  0
O  O413  1  0.23139417  0.62781095  0.81663402  1  -1.242364  0  -0.56992  -0.770103  0  2.017656  0
O  O414  1  0.74738198  0.37663558  0.94374794  1  -1.248756  0  -0.571077  -0.739418  0  2.078443  0
O  O415  1  0.62341362  0.37083868  0.61035295  1  -1.205609  0  -0.570369  -0.738907  0  2.079449  0
O  O416  1  0.62930534  0.25275659  0.27672899  1  -1.245353  0  -0.570506  -0.738412  0  2.07943  0
O  O417  1  0.25261900  0.62336397  0.44374955  1  -1.248737  0  -0.571022  -0.739324  0  2.078561  0
O  O418  1  0.37658521  0.62916060  0.11035294  1  -1.205669  0  -0.570427  -0.73896  0  2.079417  0
O  O419  1  0.37069398  0.74724134  0.77672934  1  -1.24497  0  -0.5705  -0.738417  0  2.079448  0
