# generated using pymatgen
data_ZnH22C23(NO3)2
_symmetry_space_group_name_H-M   'P 1'
_cell_length_a   13.93797141
_cell_length_b   17.25438182
_cell_length_c   20.13824278
_cell_angle_alpha   89.99993990
_cell_angle_beta   89.99992099
_cell_angle_gamma   89.99992544
_symmetry_Int_Tables_number   1
_chemical_formula_structural   ZnH22C23(NO3)2
_chemical_formula_sum   'Zn8 H176 C184 N16 O48'
_cell_volume   4843.06776690
_cell_formula_units_Z   8
loop_
 _symmetry_equiv_pos_site_id
 _symmetry_equiv_pos_as_xyz
  1  'x, y, z'
loop_
 _atom_site_type_symbol
 _atom_site_label
 _atom_site_symmetry_multiplicity
 _atom_site_fract_x
 _atom_site_fract_y
 _atom_site_fract_z
 _atom_site_occupancy
 _atom_site_pbe_bader_charge
 _atom_site_pbe_bader_spin_density
 _atom_site_pbe_cm5_charge
 _atom_site_pbe_ddec_charge
 _atom_site_pbe_ddec_spin_density
 _atom_site_pbe_ddec_sum_bond_order
 _atom_site_pbe_magmom
Zn  Zn0  1  0.31776811  0.12854547  0.41961237  1  1.248328  0  0.682486  0.743478  0  2.369754  0
Zn  Zn1  1  0.18223622  0.37145281  0.91961375  1  1.248248  0  0.682472  0.743423  0  2.369803  0
Zn  Zn2  1  0.81776591  0.37145384  0.58038722  1  1.24836  0  0.682435  0.743378  0  2.369788  0
Zn  Zn3  1  0.68222966  0.12854607  0.08038548  1  1.248176  0  0.682436  0.743353  0  2.369806  0
Zn  Zn4  1  0.68223144  0.87145444  0.58038805  1  1.248366  0  0.682456  0.743448  0  2.369768  0
Zn  Zn5  1  0.81776763  0.62854652  0.08038568  1  1.248108  0  0.68244  0.743362  0  2.369789  0
Zn  Zn6  1  0.18223148  0.62854665  0.41961469  1  1.248103  0  0.682435  0.743382  0  2.369853  0
Zn  Zn7  1  0.31776773  0.87145500  0.91961246  1  1.248345  0  0.682454  0.74341  0  2.369748  0
H  H8  1  0.34463758  0.22821682  0.63430930  1  0.043162  0  0.10482  0.082675  0  1.008788  0
H  H9  1  0.15536014  0.27178181  0.13431192  1  0.043151  0  0.104837  0.082661  0  1.008765  0
H  H10  1  0.84463812  0.27178246  0.36569076  1  0.043168  0  0.104822  0.082686  0  1.008784  0
H  H11  1  0.65536190  0.22821767  0.86568882  1  0.043134  0  0.104855  0.082636  0  1.008804  0
H  H12  1  0.65536412  0.77178541  0.36569113  1  0.0431  0  0.104823  0.082649  0  1.008793  0
H  H13  1  0.84464084  0.72821868  0.86568900  1  0.043151  0  0.104835  0.082659  0  1.008739  0
H  H14  1  0.15535856  0.72821687  0.63431214  1  0.043085  0  0.104853  0.082673  0  1.008883  0
H  H15  1  0.34463692  0.77178861  0.13430912  1  0.04269  0  0.104849  0.082689  0  1.008915  0
H  H16  1  0.43314402  0.27200162  0.58224908  1  0.048342  0  0.107886  0.08973  0  0.96299  0
H  H17  1  0.06685380  0.22799823  0.08225133  1  0.048302  0  0.107876  0.089723  0  0.963005  0
H  H18  1  0.93314524  0.22799756  0.41774990  1  0.048319  0  0.107864  0.089692  0  0.963009  0
H  H19  1  0.56685396  0.27200251  0.91774751  1  0.048334  0  0.107837  0.089707  0  0.962961  0
H  H20  1  0.56685840  0.72800002  0.41775035  1  0.048391  0  0.107862  0.089657  0  0.963091  0
H  H21  1  0.93314646  0.77200458  0.91774859  1  0.048472  0  0.10786  0.089747  0  0.962978  0
H  H22  1  0.06685287  0.77200235  0.58225251  1  0.048488  0  0.107852  0.089719  0  0.962994  0
H  H23  1  0.43314271  0.72800320  0.08224944  1  0.048386  0  0.107895  0.089719  0  0.963  0
H  H24  1  0.18716027  0.53902430  0.68561609  1  0.059225  0  0.10106  0.110224  0  1.027161  0
H  H25  1  0.31283582  0.96097417  0.18561988  1  0.059336  0  0.101064  0.110217  0  1.027131  0
H  H26  1  0.68716133  0.96097794  0.31437970  1  0.059381  0  0.101085  0.110284  0  1.027169  0
H  H27  1  0.81283943  0.53902447  0.81438224  1  0.059308  0  0.101043  0.110195  0  1.027161  0
H  H28  1  0.81283712  0.46097503  0.31438383  1  0.05934  0  0.101046  0.110205  0  1.02718  0
H  H29  1  0.68716659  0.03902632  0.81438203  1  0.059358  0  0.101055  0.1102  0  1.027197  0
H  H30  1  0.31283247  0.03902139  0.68562222  1  0.059455  0  0.101089  0.110306  0  1.027185  0
H  H31  1  0.18716155  0.46097950  0.18561769  1  0.059312  0  0.101092  0.110289  0  1.027171  0
H  H32  1  0.30161587  0.52412130  0.77973349  1  0.037787  0  0.092518  0.087498  0  1.032368  0
H  H33  1  0.19838004  0.97587879  0.27973639  1  0.037658  0  0.092547  0.087511  0  1.03232  0
H  H34  1  0.80161709  0.97588372  0.22026219  1  0.037123  0  0.092522  0.087513  0  1.032317  0
H  H35  1  0.69838242  0.52412112  0.72026585  1  0.037695  0  0.092532  0.087504  0  1.0324  0
H  H36  1  0.69838152  0.47587861  0.22026594  1  0.037572  0  0.092539  0.087531  0  1.032325  0
H  H37  1  0.80161951  0.02411938  0.72026503  1  0.036982  0  0.09249  0.087459  0  1.032431  0
H  H38  1  0.19837600  0.02411677  0.77973724  1  0.036983  0  0.092523  0.087519  0  1.032341  0
H  H39  1  0.30161999  0.47588110  0.27973309  1  0.037068  0  0.092512  0.087505  0  1.032406  0
H  H40  1  0.41818457  0.41542479  0.78020075  1  0.0576  0  0.089485  0.086233  0  1.054788  0
H  H41  1  0.08181357  0.08457772  0.28020213  1  0.057342  0  0.089457  0.086167  0  1.054827  0
H  H42  1  0.91818642  0.08457963  0.21979725  1  0.057047  0  0.089445  0.086139  0  1.054873  0
H  H43  1  0.58181533  0.41542416  0.71979819  1  0.057307  0  0.089457  0.086166  0  1.054808  0
H  H44  1  0.58181497  0.58457744  0.21979868  1  0.057383  0  0.089459  0.086178  0  1.054814  0
H  H45  1  0.91818741  0.91542335  0.71979730  1  0.057666  0  0.089434  0.08612  0  1.054863  0
H  H46  1  0.08180811  0.91541970  0.78020417  1  0.056923  0  0.089473  0.086177  0  1.054961  0
H  H47  1  0.41818637  0.58457865  0.28020075  1  0.057096  0  0.089477  0.086183  0  1.054835  0
H  H48  1  0.41860876  0.31997952  0.68845049  1  0.047461  0  0.098337  0.104732  0  1.026345  0
H  H49  1  0.08139530  0.18002252  0.18845227  1  0.047461  0  0.098326  0.104762  0  1.026289  0
H  H50  1  0.91860740  0.18002374  0.31154801  1  0.047771  0  0.09834  0.104781  0  1.026333  0
H  H51  1  0.58139058  0.31998052  0.81154904  1  0.047472  0  0.098327  0.104741  0  1.026369  0
H  H52  1  0.58139509  0.68002328  0.31154795  1  0.047459  0  0.098311  0.104724  0  1.026333  0
H  H53  1  0.91860783  0.81997739  0.81154766  1  0.047435  0  0.098331  0.104754  0  1.026289  0
H  H54  1  0.08138927  0.81997559  0.68845241  1  0.047704  0  0.098321  0.104761  0  1.026313  0
H  H55  1  0.41860825  0.68002518  0.18845139  1  0.047739  0  0.098341  0.104811  0  1.026303  0
H  H56  1  0.07838564  0.51257029  0.54004784  1  0.136129  0  0.116954  0.12731  0  0.99327  0
H  H57  1  0.42161577  0.98742777  0.04005002  1  0.136441  0  0.116939  0.127319  0  0.99321  0
H  H58  1  0.57838637  0.98743264  0.45995202  1  0.136135  0  0.116967  0.127355  0  0.99324  0
H  H59  1  0.92161482  0.51256901  0.95995101  1  0.136146  0  0.116936  0.127312  0  0.993178  0
H  H60  1  0.92161605  0.48743077  0.45995208  1  0.136088  0  0.116959  0.12735  0  0.993208  0
H  H61  1  0.57838306  0.01257098  0.95994941  1  0.136439  0  0.116931  0.127314  0  0.993174  0
H  H62  1  0.42161246  0.01256669  0.54004989  1  0.136243  0  0.116953  0.127301  0  0.993146  0
H  H63  1  0.07838472  0.48743032  0.04005090  1  0.136219  0  0.116939  0.12735  0  0.993202  0
H  H64  1  0.07959233  0.51500904  0.62703458  1  0.083046  0  0.105776  0.092301  0  1.002135  0
H  H65  1  0.42040532  0.98498428  0.12703576  1  0.082923  0  0.105818  0.092386  0  1.002024  0
H  H66  1  0.57959395  0.98499216  0.37296578  1  0.083077  0  0.105759  0.092284  0  1.002118  0
H  H67  1  0.92040885  0.51500786  0.87296427  1  0.083028  0  0.105783  0.092322  0  1.002149  0
H  H68  1  0.92040506  0.48498681  0.37296535  1  0.082972  0  0.105769  0.092288  0  1.002196  0
H  H69  1  0.57959423  0.01500926  0.87296317  1  0.08299  0  0.105802  0.092328  0  1.002094  0
H  H70  1  0.42040416  0.01500659  0.62703712  1  0.083048  0  0.105793  0.092287  0  1.002027  0
H  H71  1  0.07959572  0.48498915  0.12703764  1  0.082948  0  0.10578  0.092333  0  1.002057  0
H  H72  1  0.39860929  0.10147760  0.28664146  1  0.077267  0  0.116237  0.084167  0  0.992542  0
H  H73  1  0.10139314  0.39852374  0.78664289  1  0.077294  0  0.116226  0.084173  0  0.992435  0
H  H74  1  0.89861468  0.39851988  0.71335955  1  0.077311  0  0.116264  0.084239  0  0.9924  0
H  H75  1  0.60138995  0.10147870  0.21335840  1  0.077301  0  0.116222  0.084159  0  0.992561  0
H  H76  1  0.60138810  0.89852115  0.71336095  1  0.077294  0  0.116223  0.084185  0  0.992514  0
H  H77  1  0.89861286  0.60147443  0.21335853  1  0.07714  0  0.116256  0.084298  0  0.992381  0
H  H78  1  0.10138989  0.60147597  0.28664286  1  0.077205  0  0.11627  0.084325  0  0.992425  0
H  H79  1  0.39861031  0.89852179  0.78664004  1  0.077286  0  0.116249  0.084219  0  0.992497  0
H  H80  1  0.42304331  0.17536150  0.17988830  1  0.16023  0  0.108697  0.129401  0  1.04353  0
H  H81  1  0.07695646  0.32463882  0.67988982  1  0.16023  0  0.108741  0.129456  0  1.04352  0
H  H82  1  0.92304502  0.32463422  0.82011268  1  0.16022  0  0.108713  0.129441  0  1.04351  0
H  H83  1  0.57695725  0.17536191  0.32011198  1  0.160234  0  0.108675  0.129362  0  1.043537  0
H  H84  1  0.57695767  0.82463609  0.82011460  1  0.160188  0  0.108705  0.129376  0  1.043599  0
H  H85  1  0.92304810  0.67535819  0.32011159  1  0.160082  0  0.108688  0.129404  0  1.043578  0
H  H86  1  0.07695453  0.67535931  0.17988924  1  0.160169  0  0.108727  0.129489  0  1.043505  0
H  H87  1  0.42304373  0.82463684  0.67988695  1  0.160195  0  0.108694  0.129403  0  1.043591  0
H  H88  1  0.24869705  0.35731300  0.26254001  1  0.071094  0  0.105507  0.114571  0  1.017114  0
H  H89  1  0.25130184  0.14268547  0.76253953  1  0.071097  0  0.105538  0.114589  0  1.017022  0
H  H90  1  0.74869706  0.14268580  0.73745965  1  0.071076  0  0.105497  0.114545  0  1.017091  0
H  H91  1  0.75130250  0.35731333  0.23745913  1  0.071099  0  0.105494  0.114533  0  1.017144  0
H  H92  1  0.75130321  0.64268575  0.73745992  1  0.07107  0  0.105506  0.114555  0  1.017091  0
H  H93  1  0.74870560  0.85731154  0.23746039  1  0.07092  0  0.105545  0.114591  0  1.017106  0
H  H94  1  0.25130033  0.85731179  0.26253879  1  0.070876  0  0.105536  0.11454  0  1.017181  0
H  H95  1  0.24869633  0.64268658  0.76253882  1  0.071095  0  0.105506  0.114555  0  1.017122  0
H  H96  1  0.23499703  0.27851209  0.36626608  1  0.099096  0  0.120668  0.095232  0  0.985553  0
H  H97  1  0.26500596  0.22148683  0.86626503  1  0.099096  0  0.120676  0.095238  0  0.985543  0
H  H98  1  0.73499783  0.22148847  0.63373508  1  0.099131  0  0.120669  0.095227  0  0.985516  0
H  H99  1  0.76500337  0.27851195  0.13373412  1  0.099094  0  0.120666  0.095204  0  0.985575  0
H  H100  1  0.76500395  0.72149014  0.63373534  1  0.098965  0  0.120667  0.095241  0  0.985503  0
H  H101  1  0.73500147  0.77850960  0.13373540  1  0.099216  0  0.120687  0.095269  0  0.98549  0
H  H102  1  0.26500315  0.77851028  0.36626435  1  0.099154  0  0.120668  0.095236  0  0.985504  0
H  H103  1  0.23499618  0.72148854  0.86626432  1  0.099142  0  0.120675  0.095248  0  0.985513  0
H  H104  1  0.29417940  0.35730088  0.14062667  1  0.037036  0  0.091926  0.093097  0  1.018386  0
H  H105  1  0.20581758  0.14269774  0.64062922  1  0.037003  0  0.091868  0.09305  0  1.018297  0
H  H106  1  0.79417701  0.14269903  0.85937493  1  0.036975  0  0.091916  0.093105  0  1.018402  0
H  H107  1  0.70582158  0.35729937  0.35937346  1  0.037036  0  0.091909  0.093074  0  1.01844  0
H  H108  1  0.70582158  0.64270019  0.85937574  1  0.037018  0  0.091906  0.093092  0  1.018386  0
H  H109  1  0.79418125  0.85729753  0.35937121  1  0.037113  0  0.091893  0.0931  0  1.018306  0
H  H110  1  0.20581894  0.85729798  0.14062748  1  0.037107  0  0.091866  0.093007  0  1.018374  0
H  H111  1  0.29418083  0.64270054  0.64062498  1  0.037069  0  0.09188  0.093059  0  1.018402  0
H  H112  1  0.35405909  0.27453870  0.10794706  1  0.095682  0  0.105288  0.1237  0  0.970115  0
H  H113  1  0.14594083  0.22545996  0.60794860  1  0.095691  0  0.10533  0.12376  0  0.970217  0
H  H114  1  0.85405722  0.22546057  0.89205398  1  0.095681  0  0.105287  0.12371  0  0.970098  0
H  H115  1  0.64594131  0.27453779  0.39205264  1  0.095659  0  0.1053  0.123729  0  0.970129  0
H  H116  1  0.64594117  0.72546294  0.89205336  1  0.09564  0  0.105295  0.123721  0  0.970128  0
H  H117  1  0.85406159  0.77453821  0.39205281  1  0.095643  0  0.105307  0.123758  0  0.970237  0
H  H118  1  0.14593873  0.77453760  0.10794743  1  0.095651  0  0.105302  0.123727  0  0.970185  0
H  H119  1  0.35406110  0.72546269  0.60794629  1  0.095624  0  0.105292  0.123724  0  0.97012  0
H  H120  1  0.44752516  0.40751121  0.18570101  1  0.020494  0  0.085873  0.079233  0  1.003285  0
H  H121  1  0.05247245  0.09248678  0.68569928  1  0.020528  0  0.08589  0.079246  0  1.003197  0
H  H122  1  0.94752366  0.09248739  0.81430094  1  0.020621  0  0.085886  0.07925  0  1.00324  0
H  H123  1  0.55247574  0.40751165  0.31429957  1  0.020601  0  0.085853  0.07919  0  1.003249  0
H  H124  1  0.55247725  0.59248870  0.81430041  1  0.020624  0  0.085884  0.079255  0  1.003272  0
H  H125  1  0.94752494  0.90751255  0.31429965  1  0.020497  0  0.08587  0.079241  0  1.003222  0
H  H126  1  0.05247588  0.90751310  0.18569998  1  0.020586  0  0.085862  0.079224  0  1.003253  0
H  H127  1  0.44752524  0.59248826  0.68569937  1  0.020529  0  0.085864  0.079231  0  1.003195  0
H  H128  1  0.50868839  0.32272287  0.15909741  1  0.052997  0  0.091554  0.092465  0  0.985631  0
H  H129  1  0.99130774  0.17727578  0.65909667  1  0.053117  0  0.091527  0.092431  0  0.985688  0
H  H130  1  0.00868465  0.17727735  0.84090298  1  0.053055  0  0.091546  0.092451  0  0.985679  0
H  H131  1  0.49131337  0.32272277  0.34090325  1  0.053017  0  0.091529  0.092419  0  0.985666  0
H  H132  1  0.49131403  0.67727762  0.84090252  1  0.053026  0  0.091532  0.092455  0  0.985649  0
H  H133  1  0.00869109  0.82272471  0.34090325  1  0.053129  0  0.091541  0.092457  0  0.985678  0
H  H134  1  0.99130916  0.82272546  0.15909745  1  0.053149  0  0.091536  0.092437  0  0.985636  0
H  H135  1  0.50868833  0.67727598  0.65909618  1  0.053167  0  0.091551  0.092453  0  0.985724  0
H  H136  1  0.39685003  0.42950456  0.06504452  1  0.062208  0  0.097997  0.105536  0  0.979237  0
H  H137  1  0.10314997  0.07049647  0.56504376  1  0.06225  0  0.098014  0.105585  0  0.979227  0
H  H138  1  0.89685191  0.07049641  0.93495897  1  0.062266  0  0.098049  0.105585  0  0.979236  0
H  H139  1  0.60314941  0.42950364  0.43495653  1  0.062216  0  0.098017  0.105543  0  0.979259  0
H  H140  1  0.60315167  0.57049651  0.93495640  1  0.06219  0  0.098008  0.105536  0  0.979259  0
H  H141  1  0.89684885  0.92950459  0.43495667  1  0.062229  0  0.098009  0.105554  0  0.979137  0
H  H142  1  0.10314979  0.92950466  0.06504344  1  0.062247  0  0.098003  0.105558  0  0.979161  0
H  H143  1  0.39684942  0.57049684  0.56504190  1  0.062237  0  0.098011  0.105512  0  0.979253  0
H  H144  1  0.47139037  0.35030610  0.04223766  1  0.050259  0  0.100986  0.107865  0  0.969395  0
H  H145  1  0.02861039  0.14969554  0.54223641  1  0.050386  0  0.100982  0.107861  0  0.969385  0
H  H146  1  0.97139137  0.14969594  0.95776228  1  0.050384  0  0.100979  0.107846  0  0.9694  0
H  H147  1  0.52860991  0.35030466  0.45776197  1  0.050407  0  0.100965  0.107818  0  0.969448  0
H  H148  1  0.52861133  0.64969439  0.95776276  1  0.050416  0  0.100975  0.107827  0  0.969464  0
H  H149  1  0.97139130  0.85030669  0.45776303  1  0.050224  0  0.100968  0.107851  0  0.969439  0
H  H150  1  0.02860890  0.85030628  0.04223765  1  0.050245  0  0.10098  0.107864  0  0.969443  0
H  H151  1  0.47138964  0.64969641  0.54223696  1  0.050374  0  0.100957  0.107788  0  0.96942  0
H  H152  1  0.65452389  0.36605562  0.04830463  1  0.161702  0  0.110965  0.133122  0  1.017783  0
H  H153  1  0.84547533  0.13394432  0.54830209  1  0.161664  0  0.110926  0.133046  0  1.017812  0
H  H154  1  0.15452574  0.13394386  0.95169561  1  0.161692  0  0.110931  0.133048  0  1.017823  0
H  H155  1  0.34547493  0.36605612  0.45169549  1  0.161704  0  0.110958  0.133112  0  1.017799  0
H  H156  1  0.34547709  0.63394429  0.95169480  1  0.161712  0  0.110949  0.133107  0  1.017812  0
H  H157  1  0.15452494  0.86605675  0.45169635  1  0.161707  0  0.110945  0.133098  0  1.01777  0
H  H158  1  0.84547452  0.86605547  0.04830332  1  0.161676  0  0.110958  0.133112  0  1.017769  0
H  H159  1  0.65452533  0.63394495  0.54830345  1  0.161673  0  0.11095  0.133093  0  1.017795  0
H  H160  1  0.78799804  0.46247975  0.04979423  1  0.123734  0  0.126691  0.107916  0  0.988272  0
H  H161  1  0.71200045  0.03752251  0.54979289  1  0.123698  0  0.126688  0.107937  0  0.988277  0
H  H162  1  0.28799790  0.03751959  0.95020539  1  0.123761  0  0.126693  0.107934  0  0.988253  0
H  H163  1  0.21200206  0.46248039  0.45020580  1  0.123743  0  0.12668  0.10792  0  0.988252  0
H  H164  1  0.21200366  0.53752074  0.95020520  1  0.123772  0  0.126703  0.107954  0  0.988237  0
H  H165  1  0.28799766  0.96248030  0.45020455  1  0.123744  0  0.126685  0.107915  0  0.988263  0
H  H166  1  0.71200093  0.96247916  0.04979305  1  0.123703  0  0.126695  0.107922  0  0.988299  0
H  H167  1  0.78799820  0.53752068  0.54979363  1  0.123728  0  0.126702  0.107941  0  0.988282  0
H  H168  1  0.60373574  0.64221619  0.09825576  1  0.098847  0  0.116967  0.078646  0  0.991161  0
H  H169  1  0.89626258  0.85778590  0.59825545  1  0.098905  0  0.116999  0.078679  0  0.991113  0
H  H170  1  0.10373375  0.85778614  0.90174011  1  0.098846  0  0.116962  0.078693  0  0.991167  0
H  H171  1  0.39626551  0.64221496  0.40174162  1  0.098832  0  0.116964  0.078666  0  0.991156  0
H  H172  1  0.39626739  0.35778487  0.90174367  1  0.098832  0  0.116954  0.078639  0  0.991157  0
H  H173  1  0.10373553  0.14221517  0.40174100  1  0.098807  0  0.116959  0.078669  0  0.991178  0
H  H174  1  0.89626221  0.14221551  0.09825535  1  0.098874  0  0.116977  0.078652  0  0.991111  0
H  H175  1  0.60373475  0.35778611  0.59825781  1  0.098851  0  0.116982  0.078683  0  0.991151  0
H  H176  1  0.46250866  0.55341506  0.10015723  1  0.088973  0  0.102919  0.111661  0  1.042539  0
H  H177  1  0.03748976  0.94658583  0.60015420  1  0.089018  0  0.102846  0.111522  0  1.042509  0
H  H178  1  0.96250714  0.94658805  0.89984277  1  0.088952  0  0.102892  0.111593  0  1.042566  0
H  H179  1  0.53749273  0.55341252  0.39984223  1  0.088959  0  0.102923  0.111642  0  1.042556  0
H  H180  1  0.53749376  0.44658601  0.89984320  1  0.088912  0  0.102917  0.111675  0  1.042574  0
H  H181  1  0.96250763  0.05341466  0.39984274  1  0.088957  0  0.102915  0.111637  0  1.042552  0
H  H182  1  0.03748953  0.05341418  0.10015616  1  0.088986  0  0.10289  0.111599  0  1.042525  0
H  H183  1  0.46250753  0.44658797  0.60015720  1  0.088963  0  0.102881  0.111582  0  1.042545  0
C  C184  1  0.33224565  0.20124635  0.53104608  1  1.598741  0  0.19396  0.584859  0  4.209141  0
C  C185  1  0.16775513  0.29875183  0.03104718  1  1.598815  0  0.193947  0.584753  0  4.209311  0
C  C186  1  0.83224523  0.29875121  0.46895498  1  1.598699  0  0.194008  0.584856  0  4.20908  0
C  C187  1  0.66775244  0.20125054  0.96895454  1  1.599134  0  0.194008  0.584806  0  4.209086  0
C  C188  1  0.66775461  0.79875298  0.46895533  1  1.598757  0  0.193995  0.584955  0  4.209019  0
C  C189  1  0.83224728  0.70125156  0.96895424  1  1.599137  0  0.193995  0.584687  0  4.209171  0
C  C190  1  0.16775288  0.70125044  0.53104693  1  1.59912  0  0.193976  0.584787  0  4.209148  0
C  C191  1  0.33224352  0.79875459  0.03104440  1  1.599117  0  0.193902  0.584778  0  4.20908  0
C  C192  1  0.35595058  0.25762271  0.58650074  1  0.442398  0  -0.062511  -0.109912  0  3.913722  0
C  C193  1  0.14404794  0.24237598  0.08650290  1  0.442407  0  -0.062543  -0.109859  0  3.913723  0
C  C194  1  0.85595107  0.24237656  0.41349882  1  0.442436  0  -0.062502  -0.109844  0  3.913709  0
C  C195  1  0.64405029  0.25762351  0.91349636  1  0.442414  0  -0.062532  -0.109864  0  3.913671  0
C  C196  1  0.64405183  0.74237894  0.41349820  1  0.4424  0  -0.062499  -0.109802  0  3.913753  0
C  C197  1  0.85595375  0.75762451  0.91349752  1  0.442214  0  -0.06254  -0.109874  0  3.913654  0
C  C198  1  0.14404704  0.75762219  0.58650409  1  0.442212  0  -0.062568  -0.109907  0  3.913758  0
C  C199  1  0.35594854  0.74238161  0.08650208  1  0.442811  0  -0.062549  -0.109877  0  3.913832  0
C  C200  1  0.30352028  0.37533309  0.63473531  1  0.497539  0  0.071588  0.142367  0  4.060198  0
C  C201  1  0.19647814  0.12466554  0.13473653  1  0.497791  0  0.071605  0.142338  0  4.060194  0
C  C202  1  0.80352250  0.12466681  0.36526380  1  0.497779  0  0.071596  0.142362  0  4.060269  0
C  C203  1  0.69647968  0.37533274  0.86526367  1  0.497784  0  0.071602  0.142353  0  4.060245  0
C  C204  1  0.69648141  0.62466798  0.36526413  1  0.497807  0  0.071604  0.142392  0  4.060192  0
C  C205  1  0.80352212  0.87533495  0.86526389  1  0.497793  0  0.071564  0.142288  0  4.060316  0
C  C206  1  0.19647561  0.87533252  0.63473761  1  0.496851  0  0.071593  0.142372  0  4.060294  0
C  C207  1  0.30351915  0.62467064  0.13473626  1  0.496582  0  0.07154  0.14237  0  4.060211  0
C  C208  1  0.23638780  0.43729246  0.63402273  1  0.504077  0  0.07974  0.16315  0  4.050644  0
C  C209  1  0.26361063  0.06270617  0.13402445  1  0.504111  0  0.079773  0.163265  0  4.050483  0
C  C210  1  0.73639226  0.06270751  0.36597594  1  0.504119  0  0.079826  0.163356  0  4.050614  0
C  C211  1  0.76361207  0.43729204  0.86597619  1  0.504109  0  0.079774  0.163187  0  4.05055  0
C  C212  1  0.76361175  0.56270803  0.36597670  1  0.504086  0  0.079802  0.163187  0  4.050536  0
C  C213  1  0.73639178  0.93729490  0.86597597  1  0.504092  0  0.079768  0.163192  0  4.050581  0
C  C214  1  0.26360729  0.93729240  0.63402597  1  0.504128  0  0.079856  0.16336  0  4.050616  0
C  C215  1  0.23638748  0.56271135  0.13402424  1  0.504136  0  0.07976  0.163217  0  4.05064  0
C  C216  1  0.23738785  0.49067481  0.68619856  1  -0.060686  0  -0.115702  -0.220435  0  4.048125  0
C  C217  1  0.26261048  0.00932491  0.18620132  1  -0.06257  0  -0.115798  -0.220549  0  4.048005  0
C  C218  1  0.73739035  0.00932632  0.31379862  1  -0.062553  0  -0.11581  -0.220704  0  4.048185  0
C  C219  1  0.76261121  0.49067504  0.81380031  1  -0.062519  0  -0.115708  -0.220383  0  4.047978  0
C  C220  1  0.76261098  0.50932510  0.31380136  1  -0.060811  0  -0.115719  -0.220426  0  4.048003  0
C  C221  1  0.73739194  0.99067615  0.81379960  1  -0.062586  0  -0.115791  -0.220479  0  4.048055  0
C  C222  1  0.26260561  0.99067359  0.68620230  1  -0.062559  0  -0.115899  -0.220863  0  4.048289  0
C  C223  1  0.23738905  0.50932777  0.18619962  1  -0.060733  0  -0.115801  -0.220597  0  4.048289  0
C  C224  1  0.30222435  0.48259390  0.73897474  1  -0.024769  0  -0.111089  -0.092224  0  4.08171  0
C  C225  1  0.19777458  0.01740750  0.23897805  1  -0.022926  0  -0.111075  -0.092146  0  4.081505  0
C  C226  1  0.80222623  0.01740890  0.26102238  1  -0.022317  0  -0.111048  -0.092047  0  4.081448  0
C  C227  1  0.69777472  0.48259368  0.76102364  1  -0.022953  0  -0.111092  -0.09224  0  4.081635  0
C  C228  1  0.69777519  0.51740717  0.26102519  1  -0.024517  0  -0.111062  -0.092199  0  4.081526  0
C  C229  1  0.80222640  0.98259415  0.76102287  1  -0.022265  0  -0.111047  -0.092148  0  4.081589  0
C  C230  1  0.19776901  0.98259100  0.73897854  1  -0.022337  0  -0.111059  -0.092009  0  4.081385  0
C  C231  1  0.30222626  0.51740855  0.23897479  1  -0.023972  0  -0.111013  -0.092075  0  4.081619  0
C  C232  1  0.36725754  0.42157632  0.73962822  1  -0.038075  0  -0.117083  -0.103587  0  4.091965  0
C  C233  1  0.13274283  0.07842566  0.23963054  1  -0.037913  0  -0.116994  -0.10348  0  4.09186  0
C  C234  1  0.86725931  0.07842699  0.26036983  1  -0.037923  0  -0.117042  -0.103538  0  4.091772  0
C  C235  1  0.63274163  0.42157617  0.76037072  1  -0.038104  0  -0.117029  -0.103474  0  4.091794  0
C  C236  1  0.63274272  0.57842533  0.26037071  1  -0.037956  0  -0.117061  -0.103549  0  4.091873  0
C  C237  1  0.86725958  0.92157599  0.76036988  1  -0.037968  0  -0.116995  -0.103441  0  4.091855  0
C  C238  1  0.13273521  0.92157350  0.73963109  1  -0.03757  0  -0.117042  -0.103549  0  4.09182  0
C  C239  1  0.36725935  0.57842606  0.23962871  1  -0.037916  0  -0.11707  -0.103549  0  4.091836  0
C  C240  1  0.36784309  0.36793201  0.68752340  1  -0.067349  0  -0.121392  -0.22611  0  4.083267  0
C  C241  1  0.13215811  0.13206946  0.18752468  1  -0.067354  0  -0.121438  -0.226172  0  4.083238  0
C  C242  1  0.86784467  0.13207073  0.31247565  1  -0.067749  0  -0.121417  -0.226218  0  4.083213  0
C  C243  1  0.63215689  0.36793179  0.81247608  1  -0.06737  0  -0.121435  -0.226189  0  4.08328  0
C  C244  1  0.63215861  0.63206964  0.31247553  1  -0.067296  0  -0.121384  -0.226118  0  4.083249  0
C  C245  1  0.86784431  0.86793219  0.81247574  1  -0.067603  0  -0.121392  -0.226128  0  4.083189  0
C  C246  1  0.13215272  0.86792860  0.68752527  1  -0.068038  0  -0.121398  -0.226214  0  4.083174  0
C  C247  1  0.36784337  0.63207160  0.18752434  1  -0.067729  0  -0.121409  -0.226262  0  4.083215  0
C  C248  1  0.08564135  0.47597144  0.58426671  1  0.389372  0  -0.068344  -0.119394  0  3.864972  0
C  C249  1  0.41435790  0.02402493  0.08426931  1  0.389077  0  -0.068269  -0.119328  0  3.864892  0
C  C250  1  0.58564433  0.02402985  0.41573310  1  0.389271  0  -0.068319  -0.119428  0  3.864976  0
C  C251  1  0.91435989  0.47597138  0.91573218  1  0.38935  0  -0.068276  -0.119368  0  3.864879  0
C  C252  1  0.91435748  0.52402789  0.41573173  1  0.38944  0  -0.068344  -0.119493  0  3.865226  0
C  C253  1  0.58564236  0.97597208  0.91573112  1  0.388985  0  -0.068266  -0.119294  0  3.864875  0
C  C254  1  0.41435521  0.97596890  0.58426881  1  0.389272  0  -0.068294  -0.119236  0  3.864558  0
C  C255  1  0.08564180  0.52402853  0.08427023  1  0.38942  0  -0.068315  -0.119444  0  3.864934  0
C  C256  1  0.00338480  0.41755734  0.58589254  1  1.529061  0  0.190864  0.572914  0  4.210634  0
C  C257  1  0.49661659  0.08243440  0.08589699  1  1.529015  0  0.190919  0.572855  0  4.210541  0
C  C258  1  0.50338913  0.08244404  0.41410686  1  1.528893  0  0.191006  0.573164  0  4.210457  0
C  C259  1  0.99661725  0.41755603  0.91410690  1  1.529051  0  0.190896  0.572868  0  4.21075  0
C  C260  1  0.99662048  0.58243561  0.41410441  1  1.529091  0  0.19107  0.573147  0  4.210339  0
C  C261  1  0.50338869  0.91755740  0.91410641  1  1.529016  0  0.19089  0.57295  0  4.210906  0
C  C262  1  0.49661113  0.91755587  0.58589406  1  1.52904  0  0.190928  0.573015  0  4.210649  0
C  C263  1  0.00337799  0.58243634  0.08589800  1  1.528859  0  0.191018  0.572995  0  4.210162  0
C  C264  1  0.36751936  0.15878307  0.27908468  1  0.444569  0  0.048782  0.103331  0  3.960828  0
C  C265  1  0.13248093  0.34121539  0.77908563  1  0.444667  0  0.048769  0.103336  0  3.960327  0
C  C266  1  0.86752267  0.34121445  0.72091635  1  0.44471  0  0.048713  0.103296  0  3.960696  0
C  C267  1  0.63247979  0.15878412  0.22091463  1  0.444727  0  0.048786  0.103329  0  3.960839  0
C  C268  1  0.63247875  0.84121626  0.72091723  1  0.444607  0  0.04875  0.103304  0  3.960811  0
C  C269  1  0.86752435  0.65877989  0.22091529  1  0.444811  0  0.04869  0.103157  0  3.960601  0
C  C270  1  0.13247830  0.65878082  0.27908506  1  0.444838  0  0.048701  0.103188  0  3.960673  0
C  C271  1  0.36752048  0.84121695  0.77908281  1  0.444609  0  0.048762  0.103284  0  3.960816  0
C  C272  1  0.38106655  0.19961852  0.22059991  1  -0.031183  0  -0.082508  -0.183611  0  3.920628  0
C  C273  1  0.11893242  0.30037943  0.72059843  1  -0.031308  0  -0.082489  -0.18354  0  3.920662  0
C  C274  1  0.88106766  0.30037956  0.77940111  1  -0.031398  0  -0.082454  -0.18352  0  3.920667  0
C  C275  1  0.61893325  0.19961894  0.27939936  1  -0.031481  0  -0.082444  -0.183502  0  3.920568  0
C  C276  1  0.61893156  0.80038081  0.77940101  1  -0.031431  0  -0.082448  -0.183472  0  3.920666  0
C  C277  1  0.88107143  0.69961527  0.27940150  1  -0.031646  0  -0.082488  -0.183561  0  3.920726  0
C  C278  1  0.11893188  0.69961629  0.22059882  1  -0.031362  0  -0.082499  -0.183611  0  3.920678  0
C  C279  1  0.38106773  0.80038155  0.72059907  1  -0.03117  0  -0.08249  -0.183575  0  3.920714  0
C  C280  1  0.33873825  0.27268231  0.21264389  1  0.028146  0  0.01816  0.180339  0  3.928712  0
C  C281  1  0.16125716  0.22731855  0.71264542  1  0.028401  0  0.018149  0.180248  0  3.928851  0
C  C282  1  0.83873731  0.22731640  0.78735717  1  0.028208  0  0.018115  0.180184  0  3.928859  0
C  C283  1  0.66126072  0.27268267  0.28735681  1  0.02814  0  0.018147  0.18035  0  3.92871  0
C  C284  1  0.66126130  0.72731644  0.78735753  1  0.028218  0  0.018126  0.180246  0  3.928759  0
C  C285  1  0.83874526  0.77268020  0.28735600  1  0.028477  0  0.018158  0.180224  0  3.928709  0
C  C286  1  0.16125793  0.77268061  0.21264425  1  0.028576  0  0.018147  0.180266  0  3.928729  0
C  C287  1  0.33873954  0.72731724  0.71264262  1  0.028223  0  0.018124  0.18024  0  3.928661  0
C  C288  1  0.28409823  0.30110523  0.26573841  1  -0.05504  0  -0.089476  -0.201742  0  3.964475  0
C  C289  1  0.21590138  0.19889498  0.76573842  1  -0.055272  0  -0.089522  -0.201748  0  3.964463  0
C  C290  1  0.78409744  0.19889470  0.73426122  1  -0.055076  0  -0.08945  -0.201706  0  3.964432  0
C  C291  1  0.71590141  0.30110502  0.23426078  1  -0.055221  0  -0.089447  -0.201738  0  3.96444  0
C  C292  1  0.71590203  0.69889410  0.73426202  1  -0.055075  0  -0.089487  -0.201737  0  3.964464  0
C  C293  1  0.78410463  0.80110261  0.23426151  1  -0.054988  0  -0.089481  -0.201731  0  3.964422  0
C  C294  1  0.21589996  0.80110289  0.26573772  1  -0.055138  0  -0.089481  -0.201706  0  3.964611  0
C  C295  1  0.28409885  0.69889547  0.76573717  1  -0.055091  0  -0.089453  -0.201652  0  3.964415  0
C  C296  1  0.27481063  0.25728792  0.32335369  1  0.476158  0  0.04355  0.08789  0  3.971282  0
C  C297  1  0.22518958  0.24270990  0.82335216  1  0.476117  0  0.043514  0.08791  0  3.971559  0
C  C298  1  0.77481203  0.24271259  0.67664644  1  0.476112  0  0.043575  0.088025  0  3.971299  0
C  C299  1  0.72518837  0.25728719  0.17664504  1  0.476351  0  0.043573  0.087976  0  3.971522  0
C  C300  1  0.72518892  0.74271373  0.67664773  1  0.476338  0  0.043581  0.087979  0  3.971396  0
C  C301  1  0.77481642  0.75728596  0.17664777  1  0.475911  0  0.043531  0.087912  0  3.971417  0
C  C302  1  0.22518751  0.75728674  0.32335249  1  0.476108  0  0.043536  0.087958  0  3.971428  0
C  C303  1  0.27481118  0.74271330  0.82335241  1  0.476195  0  0.043604  0.087946  0  3.97153  0
C  C304  1  0.35342191  0.31646368  0.14914329  1  -0.046477  0  -0.159963  -0.212975  0  3.919364  0
C  C305  1  0.14657649  0.18353783  0.64914238  1  -0.046531  0  -0.159941  -0.212971  0  3.919245  0
C  C306  1  0.85341947  0.18353501  0.85085825  1  -0.046486  0  -0.159935  -0.213014  0  3.919448  0
C  C307  1  0.64657914  0.31646282  0.35085737  1  -0.046461  0  -0.159939  -0.213017  0  3.919488  0
C  C308  1  0.64657979  0.68353681  0.85085813  1  -0.046478  0  -0.159933  -0.213013  0  3.919515  0
C  C309  1  0.85342449  0.81645976  0.35085804  1  -0.046481  0  -0.159963  -0.213027  0  3.919379  0
C  C310  1  0.14657649  0.81646026  0.14914267  1  -0.046474  0  -0.159918  -0.212886  0  3.919341  0
C  C311  1  0.35342255  0.68353767  0.64914156  1  -0.046456  0  -0.159913  -0.212947  0  3.919348  0
C  C312  1  0.44838476  0.36166201  0.14765203  1  -0.025392  0  -0.154868  -0.114748  0  3.889834  0
C  C313  1  0.05161364  0.13833777  0.64765076  1  -0.025467  0  -0.154807  -0.114637  0  3.889732  0
C  C314  1  0.94838311  0.13833717  0.85234942  1  -0.02543  0  -0.154864  -0.114658  0  3.889788  0
C  C315  1  0.55161550  0.36166240  0.35234859  1  -0.025411  0  -0.154811  -0.114599  0  3.889717  0
C  C316  1  0.55161622  0.63833732  0.85234889  1  -0.025418  0  -0.154836  -0.114707  0  3.889803  0
C  C317  1  0.94838590  0.86166214  0.35234867  1  -0.025501  0  -0.154845  -0.114703  0  3.889711  0
C  C318  1  0.05161500  0.86166216  0.14765150  1  -0.025495  0  -0.154819  -0.114658  0  3.889658  0
C  C319  1  0.44838619  0.63833751  0.64764985  1  -0.025642  0  -0.154811  -0.114653  0  3.889773  0
C  C320  1  0.46243491  0.39754278  0.07837337  1  -0.011272  0  -0.156034  -0.205567  0  3.939915  0
C  C321  1  0.03756363  0.10245824  0.57837066  1  -0.011443  0  -0.156094  -0.20575  0  3.939999  0
C  C322  1  0.96243390  0.10245927  0.92162807  1  -0.011538  0  -0.156126  -0.20574  0  3.939944  0
C  C323  1  0.53756530  0.39754079  0.42162722  1  -0.01148  0  -0.156075  -0.205598  0  3.940049  0
C  C324  1  0.53756607  0.60245887  0.92162755  1  -0.011493  0  -0.156056  -0.205569  0  3.939983  0
C  C325  1  0.96243663  0.89754167  0.42162778  1  -0.011304  0  -0.156064  -0.20569  0  3.939945  0
C  C326  1  0.03756350  0.89754237  0.07837186  1  -0.011337  0  -0.156065  -0.205701  0  3.940013  0
C  C327  1  0.46243496  0.60246028  0.57837172  1  -0.011457  0  -0.156044  -0.205535  0  3.939894  0
C  C328  1  0.54640691  0.45173303  0.07552152  1  0.03219  0  0.018995  0.174453  0  3.941501  0
C  C329  1  0.95359225  0.04826804  0.57551895  1  0.032159  0  0.018971  0.174447  0  3.941447  0
C  C330  1  0.04640680  0.04826831  0.92447883  1  0.032187  0  0.019058  0.174587  0  3.941339  0
C  C331  1  0.45359392  0.45173229  0.42447852  1  0.032193  0  0.019052  0.174561  0  3.941343  0
C  C332  1  0.45359550  0.54826746  0.92447841  1  0.032163  0  0.01911  0.174611  0  3.941382  0
C  C333  1  0.04640658  0.95173361  0.42447949  1  0.032108  0  0.019017  0.174542  0  3.941425  0
C  C334  1  0.95359203  0.95173276  0.07552060  1  0.03216  0  0.019011  0.17451  0  3.941516  0
C  C335  1  0.54640634  0.54826820  0.57551991  1  0.032183  0  0.018998  0.174489  0  3.941346  0
C  C336  1  0.63966227  0.42655388  0.06078634  1  -0.073219  0  -0.080515  -0.18511  0  3.899564  0
C  C337  1  0.86033692  0.07344721  0.56078433  1  -0.07325  0  -0.08046  -0.184949  0  3.899458  0
C  C338  1  0.13966281  0.07344620  0.93921243  1  -0.073228  0  -0.080577  -0.18514  0  3.899594  0
C  C339  1  0.36033717  0.42655437  0.43921273  1  -0.073204  0  -0.080548  -0.185171  0  3.899618  0
C  C340  1  0.36033943  0.57344603  0.93921310  1  -0.073317  0  -0.080594  -0.185283  0  3.899717  0
C  C341  1  0.13966334  0.92655444  0.43921311  1  -0.073217  0  -0.080529  -0.185136  0  3.89959  0
C  C342  1  0.86033674  0.92655313  0.06078551  1  -0.073233  0  -0.080503  -0.185067  0  3.899576  0
C  C343  1  0.63966237  0.57344669  0.56078521  1  -0.073169  0  -0.080493  -0.185069  0  3.899489  0
C  C344  1  0.71469395  0.47982031  0.06108720  1  0.449792  0  0.054729  0.110372  0  3.905321  0
C  C345  1  0.78530452  0.02018136  0.56108631  1  0.449745  0  0.054737  0.110292  0  3.905358  0
C  C346  1  0.21469457  0.02018027  0.93891001  1  0.449711  0  0.0548  0.110419  0  3.905315  0
C  C347  1  0.28530612  0.47982030  0.43891133  1  0.449725  0  0.054771  0.110404  0  3.905322  0
C  C348  1  0.28530775  0.52018018  0.93891124  1  0.449845  0  0.054728  0.11037  0  3.905296  0
C  C349  1  0.21469430  0.97981971  0.43891114  1  0.449672  0  0.054769  0.110405  0  3.905377  0
C  C350  1  0.78530497  0.97981964  0.06108694  1  0.449726  0  0.054725  0.110328  0  3.905496  0
C  C351  1  0.71469414  0.52018076  0.56108760  1  0.449715  0  0.054677  0.110271  0  3.90532  0
C  C352  1  0.61179867  0.58040755  0.08812729  1  0.392451  0  0.045182  0.084566  0  3.997868  0
C  C353  1  0.88819967  0.91959398  0.58812595  1  0.392308  0  0.045191  0.084613  0  3.997767  0
C  C354  1  0.11179727  0.91959361  0.91186956  1  0.392388  0  0.045109  0.084383  0  3.998029  0
C  C355  1  0.38820125  0.58040747  0.41187114  1  0.392464  0  0.045154  0.084518  0  3.997951  0
C  C356  1  0.38820375  0.41959294  0.91187164  1  0.392616  0  0.045205  0.084555  0  3.997815  0
C  C357  1  0.11179844  0.08040767  0.41187100  1  0.392241  0  0.045152  0.084494  0  3.997851  0
C  C358  1  0.88819940  0.08040688  0.08812689  1  0.39226  0  0.045177  0.08458  0  3.997766  0
C  C359  1  0.61179902  0.41959418  0.58812829  1  0.392663  0  0.045172  0.084524  0  3.997883  0
C  C360  1  0.53362234  0.53079411  0.08891541  1  0.01161  0  -0.086603  -0.184329  0  3.945195  0
C  C361  1  0.96637672  0.96920684  0.58891245  1  0.011657  0  -0.086518  -0.184172  0  3.944972  0
C  C362  1  0.03362158  0.96920772  0.91108401  1  0.011643  0  -0.086579  -0.184235  0  3.945298  0
C  C363  1  0.46637837  0.53079278  0.41108456  1  0.011649  0  -0.086625  -0.184341  0  3.945197  0
C  C364  1  0.46638080  0.46920696  0.91108502  1  0.011612  0  -0.086645  -0.184349  0  3.945252  0
C  C365  1  0.03362211  0.03079423  0.41108450  1  0.011725  0  -0.086575  -0.184258  0  3.945188  0
C  C366  1  0.96637653  0.03079335  0.08891443  1  0.011673  0  -0.086575  -0.184268  0  3.945128  0
C  C367  1  0.53362189  0.46920770  0.58891437  1  0.011639  0  -0.086596  -0.184287  0  3.945106  0
N  N368  1  0.31566382  0.18699909  0.33007871  1  -1.258735  0  -0.333292  -0.24158  0  3.594198  0
N  N369  1  0.18433852  0.31300220  0.83008014  1  -1.258708  0  -0.333256  -0.241655  0  3.594164  0
N  N370  1  0.81566585  0.31300023  0.66992287  1  -1.258937  0  -0.33327  -0.241709  0  3.594328  0
N  N371  1  0.68433528  0.18700073  0.16992107  1  -1.258899  0  -0.333316  -0.241612  0  3.594454  0
N  N372  1  0.68433500  0.81300140  0.66992320  1  -1.258815  0  -0.33329  -0.241674  0  3.59433  0
N  N373  1  0.81566748  0.68699655  0.16992128  1  -1.258595  0  -0.333218  -0.241522  0  3.594186  0
N  N374  1  0.18433585  0.68699678  0.33007954  1  -1.258808  0  -0.333254  -0.241649  0  3.594216  0
N  N375  1  0.31566426  0.81300034  0.83007737  1  -1.258847  0  -0.333302  -0.241627  0  3.594395  0
N  N376  1  0.70146670  0.55565322  0.07499255  1  -1.274702  0  -0.333318  -0.242432  0  3.587736  0
N  N377  1  0.79853095  0.94434833  0.57499226  1  -1.274533  0  -0.333379  -0.24254  0  3.587745  0
N  N378  1  0.20146667  0.94434727  0.92500372  1  -1.274571  0  -0.333265  -0.24236  0  3.587641  0
N  N379  1  0.29853397  0.55565380  0.42500640  1  -1.274638  0  -0.333328  -0.242451  0  3.587742  0
N  N380  1  0.29853500  0.44434669  0.92500638  1  -1.274738  0  -0.333303  -0.242398  0  3.587561  0
N  N381  1  0.20146788  0.05565332  0.42500419  1  -1.274412  0  -0.333307  -0.242448  0  3.587611  0
N  N382  1  0.79853072  0.05565322  0.07499273  1  -1.274518  0  -0.333341  -0.242453  0  3.587758  0
N  N383  1  0.70146629  0.44434727  0.57499353  1  -1.274874  0  -0.333285  -0.242371  0  3.587745  0
O  O384  1  0.30562919  0.22799091  0.47428344  1  -1.16652  0  -0.331687  -0.547944  0  2.248069  0
O  O385  1  0.19437646  0.27200962  0.97428737  1  -1.16654  0  -0.331663  -0.547869  0  2.248279  0
O  O386  1  0.80562798  0.27200957  0.52571617  1  -1.166571  0  -0.331717  -0.547915  0  2.248156  0
O  O387  1  0.69437344  0.22799387  0.02571432  1  -1.166508  0  -0.331684  -0.547867  0  2.248128  0
O  O388  1  0.69437538  0.77200958  0.52571649  1  -1.166608  0  -0.331721  -0.548005  0  2.248121  0
O  O389  1  0.80562667  0.72799434  0.02571454  1  -1.166542  0  -0.331684  -0.547833  0  2.248128  0
O  O390  1  0.19437085  0.72799381  0.47428624  1  -1.166472  0  -0.331633  -0.547836  0  2.248085  0
O  O391  1  0.30562467  0.77200835  0.97428312  1  -1.166605  0  -0.331681  -0.547897  0  2.247897  0
O  O392  1  0.34473102  0.13066079  0.54297019  1  -1.178347  0  -0.321628  -0.555108  0  2.159298  0
O  O393  1  0.15526831  0.36933970  0.04297173  1  -1.178324  0  -0.321634  -0.555071  0  2.159214  0
O  O394  1  0.84473194  0.36933908  0.45702987  1  -1.178286  0  -0.321615  -0.555081  0  2.159177  0
O  O395  1  0.65526073  0.13066211  0.95703248  1  -1.178558  0  -0.321651  -0.555086  0  2.159123  0
O  O396  1  0.65526351  0.86933854  0.45703371  1  -1.178317  0  -0.32163  -0.555123  0  2.159203  0
O  O397  1  0.84473482  0.63066311  0.95703167  1  -1.178509  0  -0.321635  -0.555039  0  2.15918  0
O  O398  1  0.15526689  0.63066141  0.54296906  1  -1.178569  0  -0.321624  -0.555054  0  2.159245  0
O  O399  1  0.34472662  0.86934070  0.04296397  1  -1.178722  0  -0.321594  -0.555077  0  2.159375  0
O  O400  1  0.29855839  0.32566864  0.58202020  1  -1.050047  0  -0.170225  -0.157879  0  2.608838  0
O  O401  1  0.20144014  0.17433063  0.08202088  1  -1.050255  0  -0.170218  -0.157946  0  2.608817  0
O  O402  1  0.79855898  0.17433069  0.41797940  1  -1.050305  0  -0.170237  -0.157968  0  2.608894  0
O  O403  1  0.70144237  0.32566880  0.91797782  1  -1.0503  0  -0.170185  -0.157855  0  2.608899  0
O  O404  1  0.70144546  0.67433358  0.41797873  1  -1.050328  0  -0.170212  -0.157933  0  2.608878  0
O  O405  1  0.79855940  0.82566928  0.91797855  1  -1.050256  0  -0.170193  -0.157881  0  2.608826  0
O  O406  1  0.20143913  0.82566748  0.58202301  1  -1.049258  0  -0.170232  -0.157948  0  2.608778  0
O  O407  1  0.29855502  0.67433574  0.08202111  1  -1.049086  0  -0.170188  -0.157927  0  2.608852  0
O  O408  1  0.17730249  0.43910134  0.58029762  1  -1.069451  0  -0.173921  -0.161509  0  2.613595  0
O  O409  1  0.32269676  0.06089388  0.08029928  1  -1.069342  0  -0.17399  -0.161619  0  2.613603  0
O  O410  1  0.67730829  0.06089638  0.41970211  1  -1.069344  0  -0.173963  -0.161587  0  2.613556  0
O  O411  1  0.82269809  0.43910079  0.91970080  1  -1.06941  0  -0.173985  -0.161558  0  2.613541  0
O  O412  1  0.82269777  0.56089741  0.41970132  1  -1.069431  0  -0.173991  -0.161476  0  2.613671  0
O  O413  1  0.67730709  0.93910487  0.91970264  1  -1.069288  0  -0.173952  -0.161594  0  2.61351  0
O  O414  1  0.32269054  0.93910121  0.58030030  1  -1.069271  0  -0.173938  -0.161563  0  2.613397  0
O  O415  1  0.17730074  0.56090201  0.08030012  1  -1.069412  0  -0.173916  -0.161528  0  2.613545  0
O  O416  1  0.01610335  0.34623400  0.58356863  1  -1.149988  0  -0.325661  -0.539006  0  2.124448  0
O  O417  1  0.48389518  0.15376411  0.08357402  1  -1.149736  0  -0.325758  -0.539085  0  2.124134  0
O  O418  1  0.51610972  0.15377084  0.41643175  1  -1.149985  0  -0.325768  -0.53913  0  2.124139  0
O  O419  1  0.98389881  0.34623328  0.91643236  1  -1.15003  0  -0.325694  -0.538981  0  2.12453  0
O  O420  1  0.98389978  0.65376649  0.41642683  1  -1.149796  0  -0.325772  -0.539146  0  2.124118  0
O  O421  1  0.51610796  0.84623348  0.91642988  1  -1.150026  0  -0.325645  -0.538975  0  2.124446  0
O  O422  1  0.48389126  0.84622964  0.58357066  1  -1.150125  0  -0.325726  -0.539101  0  2.124247  0
O  O423  1  0.01609643  0.65376605  0.08357452  1  -1.149764  0  -0.325804  -0.539165  0  2.124048  0
O  O424  1  0.91995215  0.45134363  0.58951504  1  -1.175244  0  -0.351326  -0.579797  0  2.293079  0
O  O425  1  0.58004554  0.04865394  0.08951992  1  -1.175421  0  -0.351331  -0.579752  0  2.293265  0
O  O426  1  0.41995737  0.04865963  0.41048395  1  -1.175071  0  -0.351387  -0.579927  0  2.293259  0
O  O427  1  0.08004984  0.45134330  0.91048387  1  -1.175188  0  -0.351347  -0.579798  0  2.293051  0
O  O428  1  0.08004739  0.54865338  0.41048042  1  -1.175458  0  -0.351379  -0.579867  0  2.293198  0
O  O429  1  0.41995615  0.95134249  0.91048298  1  -1.17513  0  -0.351396  -0.5799  0  2.293366  0
O  O430  1  0.58004289  0.95134144  0.58951796  1  -1.175071  0  -0.351356  -0.579876  0  2.29336  0
O  O431  1  0.91995042  0.54865197  0.08951954  1  -1.175263  0  -0.351318  -0.579734  0  2.29299  0
