# generated using pymatgen
data_CdSiH32C52N8(O4F3)2
_symmetry_space_group_name_H-M   'P 1'
_cell_length_a   16.43640648
_cell_length_b   21.45210275
_cell_length_c   21.45210934
_cell_angle_alpha   89.99998767
_cell_angle_beta   89.99998543
_cell_angle_gamma   89.99996844
_symmetry_Int_Tables_number   1
_chemical_formula_structural   CdSiH32C52N8(O4F3)2
_chemical_formula_sum   'Cd4 Si4 H128 C208 N32 O32 F24'
_cell_volume   7563.91680125
_cell_formula_units_Z   4
loop_
 _symmetry_equiv_pos_site_id
 _symmetry_equiv_pos_as_xyz
  1  'x, y, z'
loop_
 _atom_site_type_symbol
 _atom_site_label
 _atom_site_symmetry_multiplicity
 _atom_site_fract_x
 _atom_site_fract_y
 _atom_site_fract_z
 _atom_site_occupancy
 _atom_site_pbe_bader_charge
 _atom_site_pbe_bader_spin_density
 _atom_site_pbe_cm5_charge
 _atom_site_pbe_ddec_charge
 _atom_site_pbe_ddec_spin_density
 _atom_site_pbe_ddec_sum_bond_order
 _atom_site_pbe_magmom
Cd  Cd0  1  0.15690677  0.75000049  0.75000028  1  1.292213  0  0.814763  0.822576  0  2.282298  0
Cd  Cd1  1  0.84309413  0.24999953  0.25000141  1  1.292191  0  0.814762  0.822569  0  2.282269  0
Cd  Cd2  1  0.34269217  0.24999964  0.25000146  1  1.291528  0  0.812033  0.8195  0  2.275775  0
Cd  Cd3  1  0.65730813  0.75000085  0.75000069  1  1.291517  0  0.812042  0.819525  0  2.275729  0
Si  Si4  1  0.09212098  0.25000062  0.25000009  1  3.240045  0  0.256287  1.73414  0  3.949747  0
Si  Si5  1  0.90787932  0.74999940  0.74999974  1  3.240045  0  0.256326  1.73419  0  3.949718  0
Si  Si6  1  0.40805048  0.74999950  0.75000025  1  3.218996  0  0.25736  1.735408  0  3.935728  0
Si  Si7  1  0.59194921  0.25000005  0.25000051  1  3.218855  0  0.257223  1.735118  0  3.936373  0
H  H8  1  0.03272206  0.76602131  0.86360124  1  0.178495  0  0.123448  0.107188  0  1.00568  0
H  H9  1  0.03271968  0.73397599  0.63639841  1  0.178426  0  0.123459  0.107183  0  1.005697  0
H  H10  1  0.03272030  0.63639813  0.76602204  1  0.178493  0  0.123444  0.107213  0  1.005666  0
H  H11  1  0.03271840  0.86360104  0.73397668  1  0.178387  0  0.123444  0.107208  0  1.005656  0
H  H12  1  0.96727945  0.23397684  0.13639905  1  0.178487  0  0.123443  0.107169  0  1.005717  0
H  H13  1  0.96728123  0.26602449  0.36360095  1  0.178412  0  0.123445  0.107191  0  1.005682  0
H  H14  1  0.96728061  0.36360096  0.23397732  1  0.178471  0  0.123447  0.107205  0  1.005652  0
H  H15  1  0.96728129  0.13639852  0.26602408  1  0.178399  0  0.123451  0.107205  0  1.005658  0
H  H16  1  0.02891706  0.80265361  0.97464113  1  0.09088  0  0.113124  0.126817  0  0.985789  0
H  H17  1  0.02891535  0.69734277  0.52535852  1  0.090785  0  0.113135  0.126774  0  0.985803  0
H  H18  1  0.02891597  0.52535773  0.80265341  1  0.090818  0  0.113125  0.126771  0  0.985783  0
H  H19  1  0.02891522  0.97464144  0.69734437  1  0.090769  0  0.113131  0.126766  0  0.985816  0
H  H20  1  0.97108384  0.19734362  0.02535916  1  0.090804  0  0.113153  0.126821  0  0.985793  0
H  H21  1  0.97108495  0.30265772  0.47464131  1  0.090787  0  0.113137  0.126793  0  0.985763  0
H  H22  1  0.97108432  0.47464089  0.19734455  1  0.090791  0  0.113121  0.126773  0  0.985796  0
H  H23  1  0.97108386  0.02535858  0.30265592  1  0.090786  0  0.113143  0.12677  0  0.985833  0
H  H24  1  0.28328591  0.85032021  0.95693515  1  0.147816  0  0.112422  0.130281  0  0.99651  0
H  H25  1  0.28328605  0.64968305  0.54306212  1  0.147848  0  0.112425  0.13026  0  0.996495  0
H  H26  1  0.28328543  0.54306363  0.85032003  1  0.147826  0  0.112421  0.130274  0  0.996496  0
H  H27  1  0.28328592  0.95693683  0.64968144  1  0.147835  0  0.112442  0.130298  0  0.996493  0
H  H28  1  0.71671378  0.14968214  0.04306374  1  0.147846  0  0.112425  0.130281  0  0.996499  0
H  H29  1  0.71671364  0.35031697  0.45693678  1  0.147856  0  0.112436  0.130268  0  0.996529  0
H  H30  1  0.71671426  0.45693686  0.14968213  1  0.147833  0  0.112442  0.1303  0  0.996466  0
H  H31  1  0.71671437  0.04306365  0.35031886  1  0.14783  0  0.112442  0.130304  0  0.996476  0
H  H32  1  0.27927777  0.80741487  0.84846377  1  0.174989  0  0.120115  0.107334  0  1.013795  0
H  H33  1  0.27927784  0.69258792  0.65153396  1  0.175028  0  0.120109  0.107323  0  1.013846  0
H  H34  1  0.27927661  0.65153505  0.80741468  1  0.175034  0  0.120109  0.107328  0  1.013831  0
H  H35  1  0.27927656  0.84846494  0.69258585  1  0.175042  0  0.120122  0.107315  0  1.013872  0
H  H36  1  0.72072192  0.19258701  0.15153559  1  0.175002  0  0.120117  0.107341  0  1.01377  0
H  H37  1  0.72072306  0.30741163  0.34846540  1  0.175007  0  0.120119  0.107307  0  1.01385  0
H  H38  1  0.72072307  0.34846543  0.19258701  1  0.175033  0  0.120118  0.107323  0  1.013857  0
H  H39  1  0.72072313  0.15153461  0.30741397  1  0.175031  0  0.120121  0.107331  0  1.013865  0
H  H40  1  0.19953538  0.89231061  0.04592357  1  0.090311  0  0.118861  0.110441  0  0.984565  0
H  H41  1  0.19953541  0.60768999  0.45407554  1  0.090329  0  0.118865  0.110471  0  0.98455  0
H  H42  1  0.19953479  0.45407563  0.89231032  1  0.090331  0  0.118854  0.110454  0  0.984565  0
H  H43  1  0.19953498  0.04592453  0.60768940  1  0.090321  0  0.118865  0.11045  0  0.984513  0
H  H44  1  0.80046431  0.10768987  0.95407625  1  0.090318  0  0.118863  0.110455  0  0.984551  0
H  H45  1  0.80046427  0.39231096  0.54592335  1  0.090282  0  0.118874  0.110451  0  0.984493  0
H  H46  1  0.80046551  0.54592392  0.10768997  1  0.090337  0  0.11888  0.110459  0  0.98455  0
H  H47  1  0.80046471  0.95407596  0.39230996  1  0.090326  0  0.118868  0.110439  0  0.984555  0
H  H48  1  0.09661995  0.86734385  0.05618179  1  0.114238  0  0.122947  0.117116  0  0.969765  0
H  H49  1  0.09661936  0.63265633  0.44381688  1  0.114213  0  0.122989  0.117169  0  0.969692  0
H  H50  1  0.09661936  0.44381698  0.86734309  1  0.114217  0  0.122958  0.117151  0  0.969678  0
H  H51  1  0.09661953  0.05618322  0.63265665  1  0.114217  0  0.122938  0.117081  0  0.969792  0
H  H52  1  0.90337974  0.13265617  0.94381804  1  0.114246  0  0.122956  0.117137  0  0.969748  0
H  H53  1  0.90337972  0.36734416  0.55618248  1  0.114236  0  0.122949  0.117126  0  0.96976  0
H  H54  1  0.90338094  0.55618210  0.13265674  1  0.114217  0  0.122955  0.117118  0  0.969717  0
H  H55  1  0.90338015  0.94381727  0.36734364  1  0.114226  0  0.122927  0.117081  0  0.969725  0
H  H56  1  0.42211326  0.76041813  0.11714640  1  0.156875  0  0.116316  0.127129  0  1.00841  0
H  H57  1  0.42211262  0.73958191  0.38285407  1  0.156811  0  0.11629  0.127084  0  1.008422  0
H  H58  1  0.42211268  0.38285367  0.76041838  1  0.156875  0  0.1163  0.127125  0  1.008386  0
H  H59  1  0.42211278  0.11714592  0.73958223  1  0.156879  0  0.116319  0.127112  0  1.008423  0
H  H60  1  0.57788703  0.23958189  0.88285436  1  0.156804  0  0.116306  0.127087  0  1.008453  0
H  H61  1  0.57788707  0.26041811  0.61714669  1  0.156907  0  0.116297  0.127113  0  1.008398  0
H  H62  1  0.57788700  0.61714635  0.23958191  1  0.156875  0  0.116302  0.12711  0  1.008407  0
H  H63  1  0.57788691  0.88285410  0.26041760  1  0.15688  0  0.116289  0.127088  0  1.008422  0
H  H64  1  0.46786537  0.68072709  0.19366149  1  0.133732  0  0.112574  0.115128  0  1.014688  0
H  H65  1  0.46786530  0.81927293  0.30633851  1  0.133742  0  0.112566  0.115122  0  1.014698  0
H  H66  1  0.46786604  0.30633856  0.68072739  1  0.133729  0  0.112596  0.115173  0  1.014596  0
H  H67  1  0.46786544  0.19366101  0.81927321  1  0.133743  0  0.112571  0.11513  0  1.014682  0
H  H68  1  0.53213492  0.31927293  0.80633880  1  0.133728  0  0.112572  0.11513  0  1.014685  0
H  H69  1  0.53213499  0.18072755  0.69366225  1  0.133742  0  0.112559  0.115126  0  1.01467  0
H  H70  1  0.53213426  0.69366099  0.31927291  1  0.133731  0  0.112583  0.115143  0  1.014654  0
H  H71  1  0.53213424  0.80633854  0.18072661  1  0.133728  0  0.11259  0.115166  0  1.01462  0
H  H72  1  0.07717658  0.61773427  0.26561716  1  0.15798  0  0.11676  0.128091  0  1.006435  0
H  H73  1  0.07717649  0.88226545  0.23438198  1  0.157946  0  0.116749  0.128122  0  1.006359  0
H  H74  1  0.07717727  0.23438207  0.61773409  1  0.157967  0  0.116769  0.128105  0  1.006388  0
H  H75  1  0.07717721  0.26561767  0.88226565  1  0.15798  0  0.116751  0.12808  0  1.006397  0
H  H76  1  0.92282250  0.38226668  0.73438266  1  0.157971  0  0.116748  0.12806  0  1.006422  0
H  H77  1  0.92282381  0.11773503  0.76561785  1  0.157954  0  0.11674  0.1281  0  1.006335  0
H  H78  1  0.92282242  0.76561795  0.38226527  1  0.157989  0  0.116744  0.128092  0  1.006415  0
H  H79  1  0.92282369  0.73438235  0.11773464  1  0.157973  0  0.116734  0.128084  0  1.006362  0
H  H80  1  0.03137458  0.69381821  0.18549450  1  0.121054  0  0.11204  0.113337  0  1.019986  0
H  H81  1  0.03137391  0.80618107  0.31450465  1  0.121027  0  0.11204  0.113347  0  1.020024  0
H  H82  1  0.03137463  0.31450429  0.69381798  1  0.121068  0  0.112043  0.113323  0  1.02001  0
H  H83  1  0.03137405  0.18549548  0.80618177  1  0.121043  0  0.112038  0.113365  0  1.019973  0
H  H84  1  0.96862511  0.30618228  0.81450532  1  0.121064  0  0.112021  0.113323  0  1.02002  0
H  H85  1  0.96862578  0.19381848  0.68549518  1  0.121044  0  0.112042  0.113361  0  1.02001  0
H  H86  1  0.96862566  0.68549527  0.30618091  1  0.121041  0  0.112038  0.113337  0  1.020001  0
H  H87  1  0.96862624  0.81450454  0.19381852  1  0.121032  0  0.112036  0.113326  0  1.020011  0
H  H88  1  0.29895681  0.54568020  0.39578011  1  0.110322  0  0.119216  0.110508  0  0.985333  0
H  H89  1  0.29895793  0.95431989  0.10421899  1  0.110315  0  0.119173  0.110437  0  0.985336  0
H  H90  1  0.29895756  0.10421950  0.54568056  1  0.110417  0  0.119209  0.110444  0  0.98567  0
H  H91  1  0.29895799  0.39578015  0.95432007  1  0.110437  0  0.119183  0.110388  0  0.98569  0
H  H92  1  0.70104227  0.45431935  0.60421972  1  0.110439  0  0.119208  0.110425  0  0.985659  0
H  H93  1  0.70104358  0.04568059  0.89577990  1  0.110318  0  0.119208  0.110418  0  0.985658  0
H  H94  1  0.70104213  0.89578005  0.45432019  1  0.110344  0  0.119193  0.110412  0  0.98567  0
H  H95  1  0.70104291  0.60421940  0.04568022  1  0.11031  0  0.11919  0.110392  0  0.985688  0
H  H96  1  0.40208763  0.55511748  0.37088930  1  0.132923  0  0.122531  0.116028  0  0.971091  0
H  H97  1  0.40208814  0.94488257  0.12911024  1  0.132904  0  0.122528  0.116008  0  0.971094  0
H  H98  1  0.40208897  0.12910981  0.55511832  1  0.132875  0  0.122538  0.118238  0  0.968313  0
H  H99  1  0.40208943  0.37088980  0.94488230  1  0.132877  0  0.122514  0.118172  0  0.96837  0
H  H100  1  0.59791084  0.44488207  0.62911099  1  0.132883  0  0.122524  0.118199  0  0.96834  0
H  H101  1  0.59791277  0.05511792  0.87088959  1  0.132918  0  0.122526  0.118191  0  0.968405  0
H  H102  1  0.59791072  0.87088928  0.44488244  1  0.132883  0  0.122526  0.118197  0  0.968342  0
H  H103  1  0.59791209  0.62910976  0.05511800  1  0.132903  0  0.12253  0.118204  0  0.968372  0
H  H104  1  0.46996564  0.47329846  0.30860079  1  0.096331  0  0.112786  0.126146  0  0.987345  0
H  H105  1  0.46996582  0.02670169  0.19140118  1  0.096304  0  0.112765  0.126115  0  0.987368  0
H  H106  1  0.46996694  0.19139973  0.47329931  1  0.096274  0  0.112787  0.126094  0  0.987359  0
H  H107  1  0.46996818  0.30860181  0.02670266  1  0.096273  0  0.112772  0.126115  0  0.987362  0
H  H108  1  0.53003465  0.52670063  0.69140230  1  0.096291  0  0.112759  0.126118  0  0.987387  0
H  H109  1  0.53003447  0.97329973  0.80859772  1  0.096294  0  0.112796  0.126093  0  0.987308  0
H  H110  1  0.53003336  0.80859982  0.52670145  1  0.096283  0  0.112785  0.126101  0  0.987356  0
H  H111  1  0.53003394  0.69140054  0.97329950  1  0.096291  0  0.112792  0.126115  0  0.987291  0
H  H112  1  0.46687621  0.36277876  0.27077236  1  0.186527  0  0.119756  0.107845  0  1.017793  0
H  H113  1  0.46687386  0.13722092  0.22923008  1  0.18616  0  0.119768  0.107824  0  1.017832  0
H  H114  1  0.46687624  0.22922867  0.36278011  1  0.186521  0  0.119748  0.10783  0  1.017797  0
H  H115  1  0.46687626  0.27077288  0.13722233  1  0.186496  0  0.119728  0.107785  0  1.017826  0
H  H116  1  0.53312531  0.63722033  0.72923027  1  0.186124  0  0.119749  0.107818  0  1.01782  0
H  H117  1  0.53312522  0.86278003  0.77076928  1  0.186142  0  0.119767  0.107802  0  1.017837  0
H  H118  1  0.53312406  0.77077135  0.63722158  1  0.186517  0  0.119746  0.107801  0  1.017798  0
H  H119  1  0.53312525  0.72922901  0.86277936  1  0.186547  0  0.119765  0.107858  0  1.01778  0
H  H120  1  0.21967132  0.34697523  0.31106399  1  0.146852  0  0.117954  0.108142  0  1.022243  0
H  H121  1  0.21967080  0.15302409  0.18893523  1  0.14686  0  0.117947  0.108141  0  1.022272  0
H  H122  1  0.21967259  0.18893664  0.34697656  1  0.146912  0  0.117966  0.108128  0  1.022235  0
H  H123  1  0.21967136  0.31106268  0.15302313  1  0.146886  0  0.117962  0.108159  0  1.022253  0
H  H124  1  0.78032837  0.65302432  0.68893397  1  0.146881  0  0.117955  0.108137  0  1.022277  0
H  H125  1  0.78032828  0.84697499  0.81106553  1  0.14687  0  0.117948  0.108131  0  1.022277  0
H  H126  1  0.78032832  0.81106431  0.65302420  1  0.146881  0  0.117947  0.108097  0  1.022289  0
H  H127  1  0.78032833  0.68893454  0.84697623  1  0.146867  0  0.117949  0.108148  0  1.022281  0
H  H128  1  0.21470851  0.45551936  0.35328454  1  0.097076  0  0.111951  0.130316  0  0.996778  0
H  H129  1  0.21470869  0.04448089  0.14671375  1  0.097042  0  0.111945  0.130333  0  0.996748  0
H  H130  1  0.21470921  0.14671466  0.45551974  1  0.097052  0  0.111933  0.130278  0  0.996675  0
H  H131  1  0.21470921  0.35328373  0.04447995  1  0.097066  0  0.111913  0.130265  0  0.996686  0
H  H132  1  0.78528996  0.54448065  0.64671296  1  0.097052  0  0.111959  0.130367  0  0.996683  0
H  H133  1  0.78529039  0.95551866  0.85328701  1  0.097052  0  0.11196  0.13037  0  0.996693  0
H  H134  1  0.78529048  0.85328536  0.54448055  1  0.097058  0  0.111945  0.13029  0  0.996775  0
H  H135  1  0.78529109  0.64671256  0.95551941  1  0.09703  0  0.111944  0.130349  0  0.996698  0
C  C136  1  0.08716522  0.78408246  0.88659198  1  0.404287  0  0.054857  0.105165  0  3.918915  0
C  C137  1  0.08716346  0.71591621  0.61340719  1  0.404325  0  0.054848  0.105118  0  3.918831  0
C  C138  1  0.08716408  0.61340736  0.78408319  1  0.404264  0  0.054807  0.104994  0  3.918903  0
C  C139  1  0.08716217  0.88659131  0.71591598  1  0.404374  0  0.054887  0.1051  0  3.918761  0
C  C140  1  0.91283630  0.21591616  0.11340832  1  0.40426  0  0.054844  0.105111  0  3.918951  0
C  C141  1  0.91283684  0.28408380  0.38659263  1  0.40432  0  0.054827  0.105032  0  3.918887  0
C  C142  1  0.91283683  0.38659219  0.21591663  1  0.404263  0  0.054866  0.105065  0  3.91886  0
C  C143  1  0.91283752  0.11340871  0.28408385  1  0.404347  0  0.054888  0.105131  0  3.918708  0
C  C144  1  0.08526454  0.80529343  0.94797708  1  0.005405  0  -0.083073  -0.178854  0  3.936297  0
C  C145  1  0.08526282  0.69470571  0.55202256  1  0.005401  0  -0.083097  -0.178778  0  3.93619  0
C  C146  1  0.08526283  0.55202224  0.80529324  1  0.005387  0  -0.08303  -0.178664  0  3.936033  0
C  C147  1  0.08526210  0.94797737  0.69470593  1  0.005441  0  -0.083128  -0.178787  0  3.936118  0
C  C148  1  0.91473697  0.19470566  0.05202321  1  0.005459  0  -0.08311  -0.178837  0  3.936224  0
C  C149  1  0.91473748  0.30529431  0.44797727  1  0.005414  0  -0.083101  -0.178772  0  3.936155  0
C  C150  1  0.91473686  0.44797732  0.19470566  1  0.005425  0  -0.083087  -0.178762  0  3.936181  0
C  C151  1  0.91473637  0.05202218  0.30529483  1  0.005453  0  -0.08314  -0.178819  0  3.936251  0
C  C152  1  0.15616750  0.82984765  0.97445652  1  -0.050752  0  0.003285  0.129061  0  3.962716  0
C  C153  1  0.15616580  0.67015286  0.52554217  1  -0.050709  0  0.003266  0.129117  0  3.962425  0
C  C154  1  0.15616641  0.52554183  0.82984746  1  -0.050727  0  0.00327  0.129113  0  3.962389  0
C  C155  1  0.15616567  0.97445775  0.67015263  1  -0.050714  0  0.003267  0.129084  0  3.962411  0
C  C156  1  0.84383280  0.17015237  0.02554284  1  -0.050751  0  0.003318  0.129127  0  3.962611  0
C  C157  1  0.84383328  0.32984716  0.47445765  1  -0.050707  0  0.003332  0.129142  0  3.962496  0
C  C158  1  0.84383389  0.47445772  0.17015283  1  -0.050724  0  0.003283  0.129129  0  3.962469  0
C  C159  1  0.84383402  0.02554227  0.32984720  1  -0.05074  0  0.003312  0.12917  0  3.962558  0
C  C160  1  0.22678574  0.83175887  0.93803399  1  -0.058372  0  -0.085949  -0.18172  0  3.939439  0
C  C161  1  0.22678525  0.66824394  0.56196376  1  -0.058348  0  -0.085984  -0.181809  0  3.939318  0
C  C162  1  0.22678463  0.56196482  0.83175822  1  -0.058374  0  -0.085958  -0.18179  0  3.939328  0
C  C163  1  0.22678392  0.93803566  0.66824232  1  -0.058377  0  -0.085935  -0.181766  0  3.939262  0
C  C164  1  0.77321456  0.16824301  0.06196491  1  -0.058394  0  -0.085949  -0.181741  0  3.939423  0
C  C165  1  0.77321505  0.33175608  0.43803560  1  -0.058409  0  -0.085997  -0.181794  0  3.939417  0
C  C166  1  0.77321506  0.43803567  0.16824301  1  -0.058389  0  -0.085971  -0.181793  0  3.939278  0
C  C167  1  0.77321516  0.06196436  0.33175750  1  -0.058386  0  -0.085918  -0.181721  0  3.939213  0
C  C168  1  0.22463322  0.80860357  0.87748703  1  0.467693  0  0.051809  0.101659  0  3.925954  0
C  C169  1  0.22463269  0.69139877  0.62251072  1  0.467603  0  0.051854  0.101803  0  3.925878  0
C  C170  1  0.22463208  0.62251180  0.80860385  1  0.467722  0  0.051851  0.101765  0  3.925856  0
C  C171  1  0.22463140  0.87748822  0.69139716  1  0.467682  0  0.051842  0.101764  0  3.925835  0
C  C172  1  0.77536708  0.19139784  0.12251233  1  0.467666  0  0.051748  0.10162  0  3.925766  0
C  C173  1  0.77536761  0.30860218  0.37748864  1  0.467668  0  0.051814  0.101734  0  3.925849  0
C  C174  1  0.77536761  0.37748822  0.19139785  1  0.467666  0  0.05179  0.101681  0  3.925844  0
C  C175  1  0.77536829  0.12251227  0.30860313  1  0.467672  0  0.051825  0.101702  0  3.925899  0
C  C176  1  0.15736377  0.85317413  0.04090729  1  0.264221  0  -0.052307  -0.105426  0  3.885661  0
C  C177  1  0.15736316  0.64682602  0.45909137  1  0.264219  0  -0.05242  -0.105661  0  3.885485  0
C  C178  1  0.15736317  0.45909100  0.85317338  1  0.264225  0  -0.052389  -0.105645  0  3.885519  0
C  C179  1  0.15736335  0.04090871  0.64682635  1  0.264227  0  -0.052314  -0.105416  0  3.885516  0
C  C180  1  0.84263592  0.14682635  0.95909253  1  0.264219  0  -0.052325  -0.105498  0  3.885604  0
C  C181  1  0.84263592  0.35317400  0.54090799  1  0.26424  0  -0.052343  -0.10551  0  3.88565  0
C  C182  1  0.84263713  0.54090809  0.14682645  1  0.264212  0  -0.052335  -0.105497  0  3.885501  0
C  C183  1  0.84263634  0.95909131  0.35317348  1  0.26422  0  -0.05233  -0.105475  0  3.885563  0
C  C184  1  0.12473561  0.76883182  0.11439005  1  1.31073  0  0.249194  0.435328  0  4.090814  0
C  C185  1  0.12473436  0.73116835  0.38560908  1  1.31045  0  0.249215  0.435421  0  4.090794  0
C  C186  1  0.12473442  0.38560918  0.76883157  1  1.310441  0  0.249196  0.435383  0  4.090847  0
C  C187  1  0.12473513  0.11439101  0.73116770  1  1.310447  0  0.249221  0.435367  0  4.090753  0
C  C188  1  0.87526408  0.23116820  0.88560977  1  1.310729  0  0.249215  0.435351  0  4.090728  0
C  C189  1  0.87526472  0.26883307  0.61439075  1  1.310386  0  0.249218  0.43538  0  4.090743  0
C  C190  1  0.87526588  0.61439038  0.23116779  1  1.310457  0  0.249149  0.435309  0  4.090944  0
C  C191  1  0.87526638  0.88560947  0.26883212  1  1.310527  0  0.249202  0.435381  0  4.090816  0
C  C192  1  0.15238035  0.72233800  0.16076172  1  -0.041657  0  -0.004185  -0.064602  0  3.991614  0
C  C193  1  0.15237969  0.77766216  0.33923694  1  -0.041431  0  -0.00419  -0.064601  0  3.991632  0
C  C194  1  0.15238039  0.33923750  0.72233777  1  -0.041454  0  -0.004191  -0.064626  0  3.991653  0
C  C195  1  0.15238044  0.16076315  0.77766196  1  -0.041459  0  -0.004167  -0.064539  0  3.991572  0
C  C196  1  0.84761995  0.27766295  0.83923857  1  -0.041678  0  -0.004201  -0.064583  0  3.991548  0
C  C197  1  0.84762000  0.22233786  0.66076196  1  -0.041478  0  -0.00418  -0.064583  0  3.991602  0
C  C198  1  0.84761930  0.66076206  0.27766159  1  -0.041421  0  -0.004177  -0.064643  0  3.991674  0
C  C199  1  0.84761985  0.83923734  0.22233787  1  -0.041461  0  -0.004166  -0.064546  0  3.991582  0
C  C200  1  0.23659401  0.71301115  0.17060783  1  0.062164  0  0.003307  0.032274  0  4.006674  0
C  C201  1  0.23659335  0.78698943  0.32939221  1  0.06233  0  0.003341  0.032314  0  4.006566  0
C  C202  1  0.23659406  0.32939229  0.71301048  1  0.062312  0  0.003276  0.032247  0  4.006708  0
C  C203  1  0.23659410  0.17060925  0.78698830  1  0.062244  0  0.003338  0.032264  0  4.00669  0
C  C204  1  0.76340629  0.28698887  0.82939199  1  0.062366  0  0.003319  0.032289  0  4.006647  0
C  C205  1  0.76340695  0.21301152  0.67060808  1  0.062381  0  0.003326  0.032303  0  4.006638  0
C  C206  1  0.76340624  0.67060773  0.28698888  1  0.062316  0  0.00332  0.032302  0  4.006714  0
C  C207  1  0.76340619  0.82939124  0.21301152  1  0.062457  0  0.003325  0.032254  0  4.006675  0
C  C208  1  0.29520718  0.74739425  0.13671931  1  0.009854  0  -0.005777  -0.068877  0  3.996714  0
C  C209  1  0.29520714  0.75260631  0.36328025  1  0.009997  0  -0.005749  -0.06884  0  3.996657  0
C  C210  1  0.29520661  0.36327986  0.74739450  1  0.010051  0  -0.005769  -0.068924  0  3.996712  0
C  C211  1  0.29520669  0.13672072  0.75260567  1  0.009931  0  -0.005775  -0.068858  0  3.996734  0
C  C212  1  0.70479251  0.25260576  0.86327958  1  0.009974  0  -0.005744  -0.068833  0  3.996677  0
C  C213  1  0.70479255  0.24739464  0.63672004  1  0.009844  0  -0.005739  -0.06879  0  3.996704  0
C  C214  1  0.70479247  0.63671969  0.25260579  1  0.009854  0  -0.005777  -0.068856  0  3.996719  0
C  C215  1  0.70479300  0.86328023  0.24739369  1  0.009971  0  -0.005775  -0.068837  0  3.996718  0
C  C216  1  0.26898854  0.79723600  0.09344012  1  1.312922  0  0.245967  0.4283  0  4.096945  0
C  C217  1  0.26898792  0.70276411  0.40655945  1  1.312916  0  0.245907  0.428303  0  4.096897  0
C  C218  1  0.26898857  0.40655954  0.79723622  1  1.312911  0  0.24602  0.428457  0  4.096875  0
C  C219  1  0.26898809  0.09344106  0.70276349  1  1.312948  0  0.245903  0.428277  0  4.097016  0
C  C220  1  0.73101115  0.20276402  0.90656018  1  1.312938  0  0.245963  0.428282  0  4.096917  0
C  C221  1  0.73101116  0.29723591  0.59344084  1  1.31292  0  0.24593  0.428209  0  4.097008  0
C  C222  1  0.73101112  0.59344002  0.20276361  1  1.312943  0  0.245947  0.428255  0  4.096985  0
C  C223  1  0.73101099  0.90655989  0.29723587  1  1.312927  0  0.245948  0.428228  0  4.096984  0
C  C224  1  0.37747456  0.73522340  0.14488214  1  -0.069495  0  -0.061164  -0.060852  0  3.906591  0
C  C225  1  0.37747330  0.76477759  0.35511927  1  -0.069569  0  -0.061134  -0.060802  0  3.906626  0
C  C226  1  0.37747460  0.35511794  0.73522320  1  -0.069681  0  -0.061151  -0.060826  0  3.906566  0
C  C227  1  0.37747467  0.14488214  0.76477696  1  -0.069638  0  -0.061109  -0.060723  0  3.906577  0
C  C228  1  0.62252635  0.26477708  0.85511908  1  -0.069567  0  -0.061141  -0.060761  0  3.906602  0
C  C229  1  0.62252579  0.23522336  0.64488242  1  -0.069518  0  -0.061137  -0.060844  0  3.906573  0
C  C230  1  0.62252509  0.64488208  0.26477710  1  -0.0695  0  -0.061104  -0.060753  0  3.906626  0
C  C231  1  0.62252563  0.85511835  0.23522240  1  -0.069681  0  -0.061114  -0.060779  0  3.906613  0
C  C232  1  0.40322350  0.69021102  0.18814176  1  -0.022164  0  -0.061271  -0.061186  0  3.908914  0
C  C233  1  0.40322344  0.80978996  0.31185825  1  -0.021919  0  -0.061277  -0.061202  0  3.908959  0
C  C234  1  0.40322356  0.31185831  0.69021038  1  -0.021948  0  -0.061297  -0.061258  0  3.908912  0
C  C235  1  0.40322297  0.18814222  0.80978931  1  -0.022175  0  -0.061307  -0.061268  0  3.909056  0
C  C236  1  0.59677619  0.30978900  0.81185853  1  -0.02194  0  -0.061275  -0.061222  0  3.908971  0
C  C237  1  0.59677625  0.19021099  0.68814204  1  -0.022171  0  -0.061279  -0.061206  0  3.908924  0
C  C238  1  0.59677613  0.68814171  0.30978945  1  -0.022193  0  -0.061284  -0.061254  0  3.908997  0
C  C239  1  0.59677611  0.81185826  0.19021005  1  -0.021952  0  -0.061331  -0.061302  0  3.908892  0
C  C240  1  0.34697399  0.65785056  0.22408602  1  -0.02684  0  -0.002912  -0.063315  0  3.988689  0
C  C241  1  0.34697391  0.84214951  0.27591400  1  -0.026855  0  -0.00294  -0.063336  0  3.988754  0
C  C242  1  0.34697466  0.27591407  0.65785040  1  -0.026852  0  -0.002944  -0.063319  0  3.98864  0
C  C243  1  0.34697465  0.22408556  0.84215023  1  -0.026852  0  -0.002958  -0.063353  0  3.988722  0
C  C244  1  0.65302509  0.34214945  0.77591427  1  -0.02684  0  -0.002928  -0.063299  0  3.988702  0
C  C245  1  0.65302578  0.15785051  0.72408582  1  -0.02685  0  -0.002921  -0.063319  0  3.988699  0
C  C246  1  0.65302503  0.72408549  0.34214943  1  -0.026845  0  -0.002944  -0.063304  0  3.988692  0
C  C247  1  0.65302565  0.77591446  0.15785006  1  -0.026842  0  -0.002926  -0.063303  0  3.988638  0
C  C248  1  0.37456701  0.61227134  0.27145619  1  1.337853  0  0.249739  0.430999  0  4.089166  0
C  C249  1  0.37456631  0.88772872  0.22854336  1  1.337842  0  0.249769  0.431026  0  4.089069  0
C  C250  1  0.37456831  0.22854342  0.61227166  1  1.337984  0  0.249771  0.430983  0  4.089338  0
C  C251  1  0.37456825  0.27145620  0.88772989  1  1.338633  0  0.24978  0.431016  0  4.089288  0
C  C252  1  0.62543207  0.38772821  0.72854364  1  1.337848  0  0.249735  0.430895  0  4.089434  0
C  C253  1  0.62543338  0.11227130  0.77145600  1  1.337848  0  0.249739  0.430945  0  4.089358  0
C  C254  1  0.62543199  0.77145613  0.38772909  1  1.338627  0  0.249757  0.430914  0  4.089383  0
C  C255  1  0.62543205  0.72854335  0.11227134  1  1.337851  0  0.249755  0.430965  0  4.089383  0
C  C256  1  0.23023863  0.59208407  0.30034381  1  1.332071  0  0.246108  0.424005  0  4.098458  0
C  C257  1  0.23023792  0.90791559  0.19965577  1  1.33209  0  0.246123  0.424024  0  4.098426  0
C  C258  1  0.23023811  0.19965537  0.59208392  1  1.332157  0  0.246098  0.424  0  4.098458  0
C  C259  1  0.23023802  0.30034430  0.90791626  1  1.33209  0  0.246098  0.423976  0  4.098395  0
C  C260  1  0.76976106  0.40791549  0.69965649  1  1.332065  0  0.246114  0.424025  0  4.098374  0
C  C261  1  0.76976177  0.09208396  0.80034312  1  1.332028  0  0.246166  0.424056  0  4.098227  0
C  C262  1  0.76976097  0.80034371  0.40791544  1  1.332084  0  0.246128  0.424054  0  4.098332  0
C  C263  1  0.76976167  0.69965618  0.09208450  1  1.332075  0  0.246084  0.423986  0  4.098401  0
C  C264  1  0.20411977  0.63551385  0.25067083  1  0.048142  0  -0.005738  -0.067721  0  3.999123  0
C  C265  1  0.20411847  0.86448581  0.24932875  1  0.048145  0  -0.005731  -0.0677  0  3.999141  0
C  C266  1  0.20412046  0.24932883  0.63551415  1  0.048132  0  -0.005687  -0.067622  0  3.999075  0
C  C267  1  0.20411920  0.25067086  0.86448650  1  0.048137  0  -0.00569  -0.067608  0  3.999064  0
C  C268  1  0.79587992  0.36448663  0.74932946  1  0.048126  0  -0.005698  -0.067629  0  3.999059  0
C  C269  1  0.79588061  0.13551327  0.75067061  1  0.048124  0  -0.005706  -0.067675  0  3.999141  0
C  C270  1  0.79588045  0.75067073  0.36448568  1  0.048143  0  -0.005711  -0.067638  0  3.999089  0
C  C271  1  0.79588110  0.74932916  0.13551379  1  0.04812  0  -0.005725  -0.067694  0  3.999182  0
C  C272  1  0.26278466  0.66842064  0.21539923  1  -0.011925  0  0.003104  0.03077  0  4.009906  0
C  C273  1  0.26278520  0.83157993  0.28459987  1  -0.011931  0  0.003056  0.03069  0  4.009884  0
C  C274  1  0.26278533  0.28460041  0.66842046  1  -0.011928  0  0.003085  0.030721  0  4.009943  0
C  C275  1  0.26278533  0.21539972  0.83158018  1  -0.011913  0  0.003043  0.03066  0  4.009866  0
C  C276  1  0.73721442  0.33157984  0.78460059  1  -0.012114  0  0.003069  0.030674  0  4.009916  0
C  C277  1  0.73721510  0.16842009  0.71539902  1  -0.011907  0  0.003057  0.030681  0  4.009855  0
C  C278  1  0.73721436  0.71539961  0.33157890  1  -0.012109  0  0.00311  0.030747  0  4.009921  0
C  C279  1  0.73721497  0.78460030  0.16841965  1  -0.011913  0  0.003086  0.030731  0  4.009975  0
C  C280  1  0.12180433  0.64463606  0.23952928  1  -0.057135  0  -0.062177  -0.064085  0  3.910739  0
C  C281  1  0.12180425  0.85536318  0.26046939  1  -0.057128  0  -0.062122  -0.064037  0  3.910565  0
C  C282  1  0.12180501  0.26046948  0.64463634  1  -0.05713  0  -0.062116  -0.064023  0  3.910579  0
C  C283  1  0.12180438  0.23953025  0.85536293  1  -0.057168  0  -0.062189  -0.064098  0  3.910702  0
C  C284  1  0.87819536  0.35536443  0.76047055  1  -0.057213  0  -0.062187  -0.064096  0  3.910725  0
C  C285  1  0.87819543  0.14463637  0.73952997  1  -0.057123  0  -0.062139  -0.064025  0  3.910581  0
C  C286  1  0.87819528  0.73953008  0.35536302  1  -0.05715  0  -0.062184  -0.064147  0  3.910778  0
C  C287  1  0.87819592  0.76046977  0.14463689  1  -0.057152  0  -0.062171  -0.064072  0  3.910614  0
C  C288  1  0.09605843  0.68762719  0.19430995  1  -0.010972  0  -0.061328  -0.059061  0  3.913181  0
C  C289  1  0.09605715  0.81237159  0.30568872  1  -0.011334  0  -0.061361  -0.059159  0  3.913253  0
C  C290  1  0.09605909  0.30568882  0.68762744  1  -0.010949  0  -0.061394  -0.059123  0  3.91317  0
C  C291  1  0.09605790  0.19431138  0.81237230  1  -0.011332  0  -0.061326  -0.059118  0  3.913197  0
C  C292  1  0.90394126  0.31237330  0.80569035  1  -0.010871  0  -0.061319  -0.059086  0  3.913212  0
C  C293  1  0.90394193  0.18762796  0.69431110  1  -0.011315  0  -0.061365  -0.059188  0  3.913209  0
C  C294  1  0.90394242  0.69431120  0.31237192  1  -0.011316  0  -0.061358  -0.059088  0  3.913197  0
C  C295  1  0.90394240  0.80568911  0.18762799  1  -0.010987  0  -0.061333  -0.059103  0  3.913221  0
C  C296  1  0.34127629  0.53988682  0.35683988  1  0.242223  0  -0.052247  -0.108634  0  3.884843  0
C  C297  1  0.34127678  0.96011279  0.14315968  1  0.242221  0  -0.052211  -0.108519  0  3.884764  0
C  C298  1  0.34127762  0.14315926  0.53988765  1  0.24213  0  -0.052212  -0.110086  0  3.884883  0
C  C299  1  0.34127808  0.35684037  0.96011344  1  0.242134  0  -0.05222  -0.109976  0  3.884811  0
C  C300  1  0.65872218  0.46011226  0.64315995  1  0.242126  0  -0.052254  -0.110071  0  3.884864  0
C  C301  1  0.65872351  0.03988723  0.85684015  1  0.242226  0  -0.052236  -0.110007  0  3.8849  0
C  C302  1  0.65872207  0.85683982  0.46011264  1  0.242228  0  -0.052226  -0.110027  0  3.884829  0
C  C303  1  0.65872343  0.64315965  0.03988732  1  0.242236  0  -0.052234  -0.110028  0  3.884873  0
C  C304  1  0.34230087  0.47317355  0.33424817  1  1.1e-05  0  0.002921  0.12717  0  3.966018  0
C  C305  1  0.34230106  0.02682618  0.16575150  1  9e-06  0  0.002921  0.127165  0  3.965951  0
C  C306  1  0.34230157  0.16575193  0.47317393  1  8.1e-05  0  0.002907  0.127009  0  3.966461  0
C  C307  1  0.34230219  0.33424828  0.02682713  1  9e-06  0  0.002876  0.126949  0  3.966612  0
C  C308  1  0.65769821  0.52682553  0.66575213  1  4e-06  0  0.002888  0.126985  0  3.966555  0
C  C309  1  0.65769863  0.97317337  0.83424880  1  8e-06  0  0.002877  0.12698  0  3.966595  0
C  C310  1  0.65769751  0.83424763  0.52682590  1  8.8e-05  0  0.002922  0.127009  0  3.966489  0
C  C311  1  0.65769932  0.66575174  0.97317363  1  8.4e-05  0  0.002921  0.127041  0  3.966576  0
C  C312  1  0.41360723  0.44659060  0.31055772  1  -0.064359  0  -0.08472  -0.180432  0  3.94032  0
C  C313  1  0.41360800  0.05340957  0.18944240  1  -0.064227  0  -0.084744  -0.180446  0  3.940274  0
C  C314  1  0.41360851  0.18944190  0.44659099  1  -0.064314  0  -0.084735  -0.180437  0  3.940226  0
C  C315  1  0.41360914  0.31055734  0.05340959  1  -0.064331  0  -0.084716  -0.1805  0  3.940344  0
C  C316  1  0.58639246  0.55340849  0.68944397  1  -0.064245  0  -0.084643  -0.180436  0  3.940306  0
C  C317  1  0.58639230  0.94659091  0.81055696  1  -0.064222  0  -0.084749  -0.180461  0  3.940222  0
C  C318  1  0.58639117  0.81055765  0.55340977  1  -0.064411  0  -0.084753  -0.180497  0  3.940286  0
C  C319  1  0.58639237  0.68944221  0.94659117  1  -0.064302  0  -0.084752  -0.180493  0  3.940244  0
C  C320  1  0.41210632  0.38533553  0.28896637  1  0.429633  0  0.053559  0.102576  0  3.916167  0
C  C321  1  0.41210582  0.11466371  0.21103467  1  0.429886  0  0.053609  0.102665  0  3.916212  0
C  C322  1  0.41210697  0.21103513  0.38533687  1  0.429501  0  0.053606  0.102645  0  3.916019  0
C  C323  1  0.41210760  0.28896598  0.11466511  1  0.429623  0  0.053646  0.102752  0  3.915978  0
C  C324  1  0.58789398  0.61466309  0.71103578  1  0.429922  0  0.053584  0.102637  0  3.916082  0
C  C325  1  0.58789387  0.88533631  0.78896469  1  0.429894  0  0.053602  0.102647  0  3.916154  0
C  C326  1  0.58789272  0.78896536  0.61466436  1  0.429596  0  0.053572  0.10265  0  3.916037  0
C  C327  1  0.58789392  0.71103451  0.88533611  1  0.429512  0  0.053588  0.102583  0  3.916101  0
C  C328  1  0.27428118  0.37611921  0.31230535  1  0.527957  0  0.050594  0.099445  0  3.922386  0
C  C329  1  0.27428129  0.12388055  0.18769386  1  0.528012  0  0.050604  0.099454  0  3.922483  0
C  C330  1  0.27428245  0.18769479  0.37612008  1  0.528217  0  0.050591  0.099494  0  3.922442  0
C  C331  1  0.27428184  0.31230451  0.12388100  1  0.527938  0  0.050595  0.099414  0  3.922423  0
C  C332  1  0.72571790  0.62387987  0.68769354  1  0.528245  0  0.050558  0.099392  0  3.922491  0
C  C333  1  0.72571779  0.87611900  0.81230690  1  0.528285  0  0.050572  0.099365  0  3.922461  0
C  C334  1  0.72571724  0.81230570  0.62388022  1  0.528243  0  0.050609  0.099465  0  3.922446  0
C  C335  1  0.72571846  0.68769364  0.87611883  1  0.528016  0  0.050577  0.099343  0  3.92246  0
C  C336  1  0.27166136  0.43671420  0.33543407  1  -0.063218  0  -0.08663  -0.182485  0  3.938549  0
C  C337  1  0.27166213  0.06328556  0.16456514  1  -0.063241  0  -0.086614  -0.182516  0  3.938657  0
C  C338  1  0.27166266  0.16456558  0.43671459  1  -0.063178  0  -0.086609  -0.182425  0  3.938406  0
C  C339  1  0.27166266  0.33543372  0.06328556  1  -0.063156  0  -0.086565  -0.182362  0  3.938398  0
C  C340  1  0.72833711  0.56328581  0.66456435  1  -0.063193  0  -0.086589  -0.182441  0  3.938433  0
C  C341  1  0.72833756  0.93671399  0.83543562  1  -0.063243  0  -0.086563  -0.182436  0  3.938484  0
C  C342  1  0.72833764  0.83543444  0.56328524  1  -0.06317  0  -0.086575  -0.182363  0  3.938433  0
C  C343  1  0.72833764  0.66456397  0.93671427  1  -0.063232  0  -0.086581  -0.182447  0  3.938475  0
N  N344  1  0.15584934  0.78549443  0.85241631  1  -1.220529  0  -0.328904  -0.243209  0  3.517315  0
N  N345  1  0.15584879  0.71450654  0.64758238  1  -1.22042  0  -0.32889  -0.243232  0  3.517137  0
N  N346  1  0.15584757  0.64758349  0.78549423  1  -1.220504  0  -0.328883  -0.243205  0  3.51722  0
N  N347  1  0.15584751  0.85241703  0.71450539  1  -1.220503  0  -0.328955  -0.24327  0  3.517209  0
N  N348  1  0.84415157  0.21450605  0.14758398  1  -1.220465  0  -0.328835  -0.243125  0  3.517082  0
N  N349  1  0.84415212  0.28549394  0.35241745  1  -1.220414  0  -0.328873  -0.24314  0  3.517092  0
N  N350  1  0.84415212  0.35241700  0.21450652  1  -1.220443  0  -0.328871  -0.243163  0  3.517118  0
N  N351  1  0.84415218  0.14758346  0.28549490  1  -1.220448  0  -0.32899  -0.243334  0  3.517297  0
N  N352  1  0.18480956  0.80426283  0.08461815  1  -1.111424  0  -0.238269  -0.169324  0  3.571975  0
N  N353  1  0.18480893  0.69573777  0.41538097  1  -1.11176  0  -0.238153  -0.169202  0  3.571833  0
N  N354  1  0.18480897  0.41538060  0.80426211  1  -1.111767  0  -0.238193  -0.169254  0  3.57185  0
N  N355  1  0.18480911  0.08461910  0.69573715  1  -1.111784  0  -0.238195  -0.169268  0  3.572028  0
N  N356  1  0.81519013  0.19573718  0.91538121  1  -1.111433  0  -0.238293  -0.169346  0  3.57193  0
N  N357  1  0.81519015  0.30426364  0.58461885  1  -1.111688  0  -0.238246  -0.169275  0  3.572012  0
N  N358  1  0.81519072  0.58461895  0.19573725  1  -1.111753  0  -0.238247  -0.169293  0  3.571905  0
N  N359  1  0.81519058  0.91538092  0.30426268  1  -1.111814  0  -0.238203  -0.16923  0  3.571977  0
N  N360  1  0.34338510  0.35113377  0.28958823  1  -1.22965  0  -0.327647  -0.242083  0  3.513813  0
N  N361  1  0.34338458  0.14886550  0.21041283  1  -1.229628  0  -0.32767  -0.242117  0  3.513815  0
N  N362  1  0.34338575  0.21041330  0.35113511  1  -1.229892  0  -0.327664  -0.242173  0  3.513799  0
N  N363  1  0.34338576  0.28958737  0.14886642  1  -1.229649  0  -0.327698  -0.242173  0  3.513728  0
N  N364  1  0.65661519  0.64886531  0.71041299  1  -1.22989  0  -0.32768  -0.242146  0  3.513822  0
N  N365  1  0.65661511  0.85113452  0.78958747  1  -1.229921  0  -0.327657  -0.242031  0  3.513763  0
N  N366  1  0.65661455  0.78958766  0.64886565  1  -1.229906  0  -0.327674  -0.242137  0  3.51373  0
N  N367  1  0.65661515  0.71041265  0.85113481  1  -1.229644  0  -0.327661  -0.242037  0  3.5138  0
N  N368  1  0.31433609  0.58302759  0.30726619  1  -1.161636  0  -0.238291  -0.154671  0  3.555479  0
N  N369  1  0.31433599  0.91697203  0.19273337  1  -1.161632  0  -0.238281  -0.154668  0  3.555397  0
N  N370  1  0.31433679  0.19273342  0.58302840  1  -1.16174  0  -0.238323  -0.154915  0  3.556197  0
N  N371  1  0.31433609  0.30726622  0.91697270  1  -1.162368  0  -0.238277  -0.154856  0  3.556099  0
N  N372  1  0.68566360  0.41697196  0.69273410  1  -1.161627  0  -0.238291  -0.154805  0  3.556143  0
N  N373  1  0.68566431  0.08302753  0.80726599  1  -1.161627  0  -0.23832  -0.15491  0  3.55619  0
N  N374  1  0.68566351  0.80726613  0.41697190  1  -1.162394  0  -0.238291  -0.154831  0  3.556145  0
N  N375  1  0.68566421  0.69273380  0.08302806  1  -1.161622  0  -0.23828  -0.154831  0  3.556128  0
O  O376  1  0.05211754  0.77741794  0.10259821  1  -1.114031  0  -0.259859  -0.434538  0  2.154897  0
O  O377  1  0.05211751  0.72258226  0.39740093  1  -1.113607  0  -0.259853  -0.434575  0  2.154962  0
O  O378  1  0.05211757  0.39740104  0.77741674  1  -1.113598  0  -0.259847  -0.43454  0  2.154975  0
O  O379  1  0.05211829  0.10259918  0.72258254  1  -1.113579  0  -0.25985  -0.434541  0  2.154911  0
O  O380  1  0.94788215  0.22258208  0.89740161  1  -1.114012  0  -0.259837  -0.434516  0  2.154876  0
O  O381  1  0.94788278  0.27741916  0.60259843  1  -1.113606  0  -0.259855  -0.434549  0  2.154921  0
O  O382  1  0.94788273  0.60259805  0.22258262  1  -1.113629  0  -0.259809  -0.43447  0  2.155028  0
O  O383  1  0.94788201  0.89740131  0.27741729  1  -1.113628  0  -0.259859  -0.434568  0  2.155008  0
O  O384  1  0.31760561  0.83201766  0.06693176  1  -1.107784  0  -0.26095  -0.425568  0  2.114236  0
O  O385  1  0.31760439  0.66798382  0.43306780  1  -1.107726  0  -0.260957  -0.425605  0  2.114234  0
O  O386  1  0.31760380  0.43306741  0.83201647  1  -1.107741  0  -0.261008  -0.425655  0  2.114303  0
O  O387  1  0.31760518  0.06693269  0.66798276  1  -1.107773  0  -0.260972  -0.425619  0  2.114285  0
O  O388  1  0.68239408  0.16798282  0.93306807  1  -1.107791  0  -0.260962  -0.425568  0  2.114255  0
O  O389  1  0.68239347  0.33201806  0.56693203  1  -1.107792  0  -0.26096  -0.425554  0  2.114218  0
O  O390  1  0.68239528  0.56693307  0.16798289  1  -1.107773  0  -0.260974  -0.425573  0  2.114315  0
O  O391  1  0.68239512  0.93306779  0.33201660  1  -1.107765  0  -0.260968  -0.425554  0  2.114282  0
O  O392  1  0.18151813  0.56571789  0.33516603  1  -1.100488  0  -0.261127  -0.426379  0  2.117098  0
O  O393  1  0.18151863  0.93428271  0.16483262  1  -1.100518  0  -0.261156  -0.426418  0  2.117076  0
O  O394  1  0.18152006  0.16483456  0.56571776  1  -1.100568  0  -0.261123  -0.426355  0  2.117189  0
O  O395  1  0.18151933  0.33516654  0.93428243  1  -1.100514  0  -0.261129  -0.426372  0  2.117094  0
O  O396  1  0.81848095  0.43428306  0.66483333  1  -1.100472  0  -0.261138  -0.426413  0  2.117026  0
O  O397  1  0.81848166  0.06571684  0.83516627  1  -1.100453  0  -0.261166  -0.426403  0  2.116907  0
O  O398  1  0.81848145  0.83516686  0.43428253  1  -1.100475  0  -0.261146  -0.42643  0  2.117025  0
O  O399  1  0.81848158  0.66483348  0.06571740  1  -1.100496  0  -0.261122  -0.426385  0  2.11704  0
O  O400  1  0.44718568  0.60075777  0.28040029  1  -1.110039  0  -0.260068  -0.433961  0  2.150166  0
O  O401  1  0.44718559  0.89924227  0.21959924  1  -1.110026  0  -0.260084  -0.433979  0  2.150126  0
O  O402  1  0.44718516  0.21959976  0.60075811  1  -1.110075  0  -0.260081  -0.434245  0  2.150645  0
O  O403  1  0.44718509  0.28039983  0.89924250  1  -1.110065  0  -0.26008  -0.434254  0  2.150651  0
O  O404  1  0.55281400  0.39924225  0.71959954  1  -1.110072  0  -0.260074  -0.434226  0  2.150643  0
O  O405  1  0.55281410  0.10075822  0.78040012  1  -1.110029  0  -0.260062  -0.434216  0  2.150548  0
O  O406  1  0.55281453  0.78039979  0.39924219  1  -1.110069  0  -0.260085  -0.434236  0  2.150678  0
O  O407  1  0.55281521  0.71959973  0.10075779  1  -1.11005  0  -0.260065  -0.434232  0  2.150676  0
F  F408  1  0.51557581  0.74999995  0.75000024  1  -0.829734  0  -0.225868  -0.519835  0  1.243033  0
F  F409  1  0.48442449  0.24999914  0.25000052  1  -0.82961  0  -0.225818  -0.519796  0  1.243082  0
F  F410  1  0.40816974  0.73382394  0.67217947  1  -0.84225  0  -0.254603  -0.553209  0  1.072419  0
F  F411  1  0.40816971  0.76617553  0.82782104  1  -0.842261  0  -0.254621  -0.553235  0  1.072428  0
F  F412  1  0.40816970  0.82782032  0.73382421  1  -0.842237  0  -0.254617  -0.553226  0  1.072426  0
F  F413  1  0.40817036  0.67217916  0.76617676  1  -0.842263  0  -0.254625  -0.553247  0  1.072438  0
F  F414  1  0.59182873  0.26617654  0.32782036  1  -0.84226  0  -0.254568  -0.553136  0  1.072521  0
F  F415  1  0.59182877  0.23382449  0.17217926  1  -0.842248  0  -0.254603  -0.553209  0  1.072501  0
F  F416  1  0.59183060  0.17217877  0.26617655  1  -0.842261  0  -0.254616  -0.553186  0  1.072498  0
F  F417  1  0.59182933  0.32782086  0.23382400  1  -0.842244  0  -0.254584  -0.553186  0  1.07251  0
F  F418  1  0.30012664  0.74999999  0.75000026  1  -0.828514  0  -0.227161  -0.523894  0  1.220633  0
F  F419  1  0.69987304  0.25000003  0.25000003  1  -0.828502  0  -0.227157  -0.523841  0  1.220677  0
F  F420  1  0.09175779  0.18847519  0.19966891  1  -0.847422  0  -0.256807  -0.554833  0  1.070031  0
F  F421  1  0.09175408  0.31152559  0.30033126  1  -0.847477  0  -0.256809  -0.554828  0  1.070049  0
F  F422  1  0.09175654  0.30033136  0.18847513  1  -0.847454  0  -0.256792  -0.55483  0  1.070067  0
F  F423  1  0.09175533  0.19966942  0.31152551  1  -0.847455  0  -0.256821  -0.554829  0  1.070015  0
F  F424  1  0.90824433  0.81152390  0.80033138  1  -0.847446  0  -0.25681  -0.554832  0  1.07005  0
F  F425  1  0.90824561  0.68847490  0.69966763  1  -0.84748  0  -0.256825  -0.554857  0  1.070063  0
F  F426  1  0.90824498  0.69966726  0.81152376  1  -0.847458  0  -0.256799  -0.55483  0  1.070075  0
F  F427  1  0.90824435  0.80033153  0.68847525  1  -0.847452  0  -0.256819  -0.554836  0  1.070028  0
F  F428  1  0.98452772  0.24999950  0.24999907  1  -0.831555  0  -0.226462  -0.520939  0  1.249583  0
F  F429  1  0.01547257  0.75000005  0.74999982  1  -0.831531  0  -0.226501  -0.520967  0  1.249651  0
F  F430  1  0.19982153  0.25000153  0.25000101  1  -0.830678  0  -0.225855  -0.521115  0  1.224876  0
F  F431  1  0.80017877  0.74999895  0.74999975  1  -0.830652  0  -0.225849  -0.521139  0  1.224855  0
