# generated using pymatgen
data_CuH14C16NO4F
_symmetry_space_group_name_H-M   'P 1'
_cell_length_a   10.55753337
_cell_length_b   15.19915407
_cell_length_c   30.61409173
_cell_angle_alpha   100.05017803
_cell_angle_beta   89.99083751
_cell_angle_gamma   89.99743842
_symmetry_Int_Tables_number   1
_chemical_formula_structural   CuH14C16NO4F
_chemical_formula_sum   'Cu12 H168 C192 N12 O48 F12'
_cell_volume   4837.12683404
_cell_formula_units_Z   12
loop_
 _symmetry_equiv_pos_site_id
 _symmetry_equiv_pos_as_xyz
  1  'x, y, z'
loop_
 _atom_site_type_symbol
 _atom_site_label
 _atom_site_symmetry_multiplicity
 _atom_site_fract_x
 _atom_site_fract_y
 _atom_site_fract_z
 _atom_site_occupancy
 _atom_site_pbe_bader_charge
 _atom_site_pbe_bader_spin_density
 _atom_site_pbe_cm5_charge
 _atom_site_pbe_ddec_charge
 _atom_site_pbe_ddec_spin_density
 _atom_site_pbe_ddec_sum_bond_order
 _atom_site_pbe_magmom
Cu  Cu0  1  0.91331207  0.98106802  0.96999650  1  1.06959  0.545846  0.690938  0.757673  0.699  2.406816  0.543
Cu  Cu1  1  0.41389504  0.51880668  0.02983384  1  1.079198  0.5791  0.693727  0.762911  0.74587  2.405208  0.58
Cu  Cu2  1  0.08672765  0.01893823  0.03001420  1  1.070382  -0.54401  0.690621  0.757131  -0.703795  2.407076  -0.541
Cu  Cu3  1  0.58608974  0.48119616  0.97016612  1  1.078022  0.579934  0.693815  0.763248  0.747025  2.40501  0.581
Cu  Cu4  1  0.58707449  0.15178467  0.63737104  1  1.07006  -0.544949  0.692372  0.758542  -0.706815  2.417737  -0.542
Cu  Cu5  1  0.08707471  0.34821489  0.36263022  1  1.07019  0.54491  0.692473  0.758608  0.699508  2.418091  0.542
Cu  Cu6  1  0.41292451  0.84821416  0.36262956  1  1.070064  0.544941  0.692343  0.758533  0.699547  2.417766  0.542
Cu  Cu7  1  0.91292523  0.65178462  0.63737043  1  1.070191  -0.544913  0.692457  0.758542  -0.706775  2.418238  -0.542
Cu  Cu8  1  0.41198078  0.18615226  0.69701808  1  1.071458  0.54558  0.689113  0.758582  0.69875  2.400452  0.543
Cu  Cu9  1  0.91198119  0.31384855  0.30298200  1  1.071677  -0.545546  0.689207  0.758685  -0.705966  2.400615  -0.543
Cu  Cu10  1  0.58801822  0.81384792  0.30298264  1  1.071581  -0.545584  0.68911  0.758547  -0.706002  2.400515  -0.543
Cu  Cu11  1  0.08802254  0.68615161  0.69701773  1  1.071703  0.54562  0.689227  0.758802  0.698803  2.40044  0.543
H  H12  1  0.31098518  0.34377464  0.86486218  1  0.085743  0.000264  0.108324  0.110917  0.000166  1.030622  0.0
H  H13  1  0.81101863  0.15621069  0.13513922  1  0.084827  -0.000154  0.108453  0.111379  -0.000133  1.030947  0.0
H  H14  1  0.68901287  0.65622485  0.13513685  1  0.085514  0.000269  0.108339  0.110912  0.000168  1.030672  0.0
H  H15  1  0.18898416  0.84379014  0.86486024  1  0.084819  0.00012  0.108473  0.111389  0.000113  1.030908  0.0
H  H16  1  0.44330230  0.29368766  0.53580811  1  0.104601  -0.000303  0.107626  0.112127  -0.000278  1.021085  0.0
H  H17  1  0.94328983  0.20630080  0.46418461  1  0.104439  0.000302  0.107674  0.112176  0.000276  1.021066  0.0
H  H18  1  0.55669954  0.70631184  0.46419091  1  0.104651  0.000302  0.107648  0.112142  0.000276  1.021039  0.0
H  H19  1  0.05671106  0.79369669  0.53581489  1  0.104433  -0.000302  0.107644  0.112118  -0.000278  1.021111  0.0
H  H20  1  0.23508366  0.25599989  0.98854193  1  0.108906  3.8e-05  0.11476  0.127939  -5.3e-05  1.010241  0.0
H  H21  1  0.73507029  0.24397997  0.01145340  1  0.108839  0.000341  0.114738  0.128019  0.000274  1.010115  0.0
H  H22  1  0.76491250  0.74400026  0.01145552  1  0.108786  0.000401  0.114819  0.128014  0.00029  1.010221  0.0
H  H23  1  0.26492302  0.75601684  0.98854376  1  0.108943  0.00023  0.114732  0.128002  0.00015  1.010045  0.0
H  H24  1  0.64126269  0.43510678  0.87025773  1  0.126072  -8.5e-05  0.122152  0.099593  -6.9e-05  0.999983  0.0
H  H25  1  0.14125462  0.06490006  0.12975226  1  0.126609  7.6e-05  0.122098  0.099561  6.9e-05  0.999942  0.0
H  H26  1  0.35874010  0.56489607  0.12974321  1  0.125999  -8.1e-05  0.122132  0.099604  -5.8e-05  0.99992  0.0
H  H27  1  0.85874627  0.93510211  0.87024699  1  0.126573  -7.6e-05  0.122107  0.099597  -7e-05  0.999886  0.0
H  H28  1  0.17880929  0.50936812  0.53190877  1  0.084445  -0.000176  0.108101  0.111426  -0.000154  1.017457  0.0
H  H29  1  0.67880987  0.99062875  0.46809453  1  0.084227  0.000176  0.108108  0.111392  0.000152  1.017541  0.0
H  H30  1  0.82119254  0.49063138  0.46809058  1  0.084452  0.000176  0.108077  0.111374  0.000152  1.017437  0.0
H  H31  1  0.32118818  0.00937076  0.53190613  1  0.084264  -0.000176  0.108101  0.111411  -0.000154  1.01748  0.0
H  H32  1  0.75856605  0.41695285  0.67904750  1  0.138537  -0.000202  0.114667  0.126617  -0.000216  1.008035  0.0
H  H33  1  0.25856099  0.08305524  0.32095644  1  0.138415  0.000202  0.114653  0.126589  0.000214  1.008122  0.0
H  H34  1  0.24143579  0.58304532  0.32095271  1  0.138508  0.000201  0.11472  0.126657  0.000213  1.007966  0.0
H  H35  1  0.74144275  0.91694426  0.67904389  1  0.138416  -0.000202  0.114674  0.126616  -0.000216  1.008032  0.0
H  H36  1  0.87325390  0.47409430  0.98132277  1  0.153339  -0.000108  0.12256  0.117346  -6.4e-05  1.00612  0.0
H  H37  1  0.37328184  0.02590718  0.01867721  1  0.153611  8e-05  0.122535  0.11733  5.9e-05  1.00619  0.0
H  H38  1  0.12674984  0.52590521  0.01867788  1  0.153376  -0.000101  0.12258  0.117387  -6.1e-05  1.006113  0.0
H  H39  1  0.62672189  0.97409099  0.98132268  1  0.153609  -8e-05  0.122542  0.117287  -5.9e-05  1.006204  0.0
H  H40  1  0.68432907  0.32529535  0.80183048  1  0.07909  0.000132  0.108446  0.111442  0.000116  1.026158  0.0
H  H41  1  0.18432673  0.17470388  0.19817388  1  0.079183  -0.000133  0.108475  0.111458  -0.000118  1.02612  0.0
H  H42  1  0.31567182  0.67470683  0.19817073  1  0.079056  -0.000142  0.108453  0.111432  -0.000124  1.026157  0.0
H  H43  1  0.81567416  0.82529562  0.80182678  1  0.079162  0.000133  0.108499  0.111511  0.000117  1.02612  0.0
H  H44  1  0.25881454  0.42134524  0.65524660  1  0.106983  0.000232  0.115249  0.128237  0.00023  1.007979  0.0
H  H45  1  0.75882209  0.07866149  0.34475656  1  0.107039  -0.000232  0.115231  0.128123  -0.000233  1.008044  0.0
H  H46  1  0.74118825  0.57865358  0.34475269  1  0.106882  -0.000232  0.11523  0.128195  -0.000233  1.007997  0.0
H  H47  1  0.24117407  0.92133801  0.65524377  1  0.10704  0.000232  0.115243  0.128163  0.00023  1.008014  0.0
H  H48  1  0.94988520  0.21017936  0.81466005  1  0.119501  -2e-06  0.116814  0.135418  -9e-06  1.008593  0.0
H  H49  1  0.44990792  0.28981819  0.18534484  1  0.120079  1.5e-05  0.116858  0.135529  5e-06  1.008247  0.0
H  H50  1  0.05011285  0.78982214  0.18533947  1  0.119522  1.8e-05  0.116809  0.135452  1.9e-05  1.008509  0.0
H  H51  1  0.55009107  0.71018198  0.81465489  1  0.120088  -7e-06  0.116864  0.135521  -1.5e-05  1.008255  0.0
H  H52  1  0.04653445  0.45654938  0.85223308  1  0.11585  -1.8e-05  0.116296  0.135168  -2e-05  1.008753  0.0
H  H53  1  0.54652194  0.04345155  0.14776041  1  0.114529  1.4e-05  0.116249  0.135081  1.6e-05  1.008695  0.0
H  H54  1  0.95346833  0.54345146  0.14776769  1  0.115872  2e-06  0.11632  0.135225  4e-06  1.008649  0.0
H  H55  1  0.45347895  0.95654729  0.85224019  1  0.114549  -1.8e-05  0.116241  0.13509  -1.9e-05  1.008691  0.0
H  H56  1  0.35519093  0.23278938  0.79704068  1  0.108453  -6.9e-05  0.122068  0.098843  -6.9e-05  0.999587  0.0
H  H57  1  0.85520947  0.26720629  0.20295197  1  0.108085  7.4e-05  0.122089  0.098899  6.9e-05  0.999471  0.0
H  H58  1  0.64480711  0.76721079  0.20296036  1  0.108475  8e-05  0.122069  0.098839  6.1e-05  0.999616  0.0
H  H59  1  0.14479047  0.73279320  0.79704771  1  0.10808  -8.1e-05  0.122098  0.098909  -7.3e-05  0.999515  0.0
H  H60  1  0.04913821  0.12704018  0.86966250  1  0.092521  0.000322  0.109036  0.11468  0.000284  1.023886  0.0
H  H61  1  0.54915709  0.37295939  0.13034673  1  0.092509  0.000405  0.108791  0.114519  0.000319  1.023529  0.0
H  H62  1  0.95086173  0.87295733  0.13033864  1  0.092466  -0.000317  0.109011  0.114625  -0.000285  1.023852  0.0
H  H63  1  0.45084191  0.62703944  0.86965322  1  0.092391  0.000397  0.108803  0.114641  0.000318  1.023519  0.0
H  H64  1  0.94824735  0.54122243  0.79800152  1  0.120499  0.00031  0.10854  0.113177  0.000289  1.029287  0.0
H  H65  1  0.44826379  0.95877047  0.20199145  1  0.120263  -0.000308  0.108447  0.113015  -0.00029  1.02942  0.0
H  H66  1  0.05175449  0.45877774  0.20199887  1  0.120524  -0.000316  0.108553  0.113181  -0.000295  1.02928  0.0
H  H67  1  0.55173710  0.04122836  0.79800849  1  0.120306  0.000311  0.108439  0.113009  0.000289  1.029444  0.0
H  H68  1  0.12474295  0.18857979  0.68559971  1  0.099391  -8.6e-05  0.122975  0.117628  -6e-05  1.003423  0.0
H  H69  1  0.62471834  0.31142115  0.31440024  1  0.09933  8.6e-05  0.123019  0.117655  6e-05  1.003666  0.0
H  H70  1  0.87525509  0.81142104  0.31440040  1  0.099414  8.6e-05  0.122983  0.117623  5.9e-05  1.003439  0.0
H  H71  1  0.37528066  0.68857901  0.68559950  1  0.099336  -7.9e-05  0.123038  0.117698  -5.7e-05  1.003607  0.0
H  H72  1  0.54184523  0.38293435  0.48243791  1  0.136624  4e-06  0.115256  0.136095  5e-06  1.024791  0.0
H  H73  1  0.04185859  0.11706281  0.51755356  1  0.136423  -4e-06  0.115284  0.136079  -5e-06  1.025028  0.0
H  H74  1  0.45815755  0.61706581  0.51756117  1  0.136623  -4e-06  0.115254  0.136102  -5e-06  1.024746  0.0
H  H75  1  0.95814040  0.88293402  0.48244654  1  0.136403  4e-06  0.115285  0.136086  5e-06  1.025096  0.0
H  H76  1  0.37280248  0.36073760  0.35251559  1  0.101007  -7.6e-05  0.122579  0.117274  -5.5e-05  1.004549  0.0
H  H77  1  0.87278133  0.13925921  0.64748272  1  0.100944  7.7e-05  0.122617  0.11738  5.5e-05  1.004427  0.0
H  H78  1  0.62719841  0.63926189  0.64748376  1  0.101001  7.6e-05  0.122582  0.117296  5.5e-05  1.004513  0.0
H  H79  1  0.12721672  0.86073896  0.35251750  1  0.10095  -7.6e-05  0.1226  0.117367  -5.5e-05  1.004407  0.0
H  H80  1  0.13650001  0.39664893  0.46245474  1  0.090826  -8.1e-05  0.121712  0.098659  -5.6e-05  0.988899  0.0
H  H81  1  0.63650940  0.10335213  0.53755372  1  0.090223  8.1e-05  0.121699  0.098708  5.6e-05  0.988806  0.0
H  H82  1  0.86350278  0.60334923  0.53754483  1  0.090775  8.1e-05  0.12167  0.098638  5.6e-05  0.98887  0.0
H  H83  1  0.36348960  0.89665004  0.46244618  1  0.090397  -8.1e-05  0.121707  0.098739  -5.6e-05  0.988792  0.0
H  H84  1  0.21966139  0.42311830  0.81053109  1  0.002316  3e-06  0.073941  0.04895  -5e-06  1.023403  0.0
H  H85  1  0.71966433  0.07688445  0.18947259  1  0.002019  -7e-06  0.073893  0.048905  1e-06  1.023439  0.0
H  H86  1  0.78033855  0.57688387  0.18946947  1  0.002303  -2e-06  0.073934  0.048947  -5e-06  1.023368  0.0
H  H87  1  0.28033467  0.92311773  0.81052829  1  0.002322  4e-06  0.073903  0.048924  -3e-06  1.023461  0.0
H  H88  1  0.24587702  0.53867397  0.81393914  1  -0.000913  6e-06  0.077028  0.059463  -1e-06  1.002879  0.0
H  H89  1  0.74588711  0.96133078  0.18606308  1  -0.000823  -6e-06  0.077026  0.059436  -0.0  1.002787  0.0
H  H90  1  0.75412292  0.46132754  0.18606103  1  -0.000885  -1.4e-05  0.077043  0.059493  -1.3e-05  1.002845  0.0
H  H91  1  0.25411189  0.03867072  0.81393677  1  -0.001067  2.4e-05  0.077025  0.059423  1.3e-05  1.002794  0.0
H  H92  1  0.16970188  0.47176455  0.73807893  1  0.048435  3.5e-05  0.07886  0.114623  4.3e-05  1.03  0.0
H  H93  1  0.66969519  0.02823880  0.26192821  1  0.048142  -3.6e-05  0.078888  0.114648  -4.4e-05  1.030071  0.0
H  H94  1  0.83029712  0.52823630  0.26192184  1  0.048473  -3.7e-05  0.078879  0.114634  -4.4e-05  1.029954  0.0
H  H95  1  0.33030570  0.97176070  0.73807212  1  0.048143  3.5e-05  0.078897  0.114672  4.3e-05  1.030044  0.0
H  H96  1  0.29816292  0.39410505  0.73183334  1  0.003398  4e-06  0.080398  0.116174  -1.9e-05  1.035091  0.0
H  H97  1  0.79815686  0.10589295  0.26816560  1  0.003601  -4e-06  0.080396  0.116137  1.9e-05  1.035009  0.0
H  H98  1  0.70183419  0.60589512  0.26816705  1  0.003359  -5e-06  0.080408  0.116149  1.9e-05  1.035153  0.0
H  H99  1  0.20184403  0.89410656  0.73183506  1  0.003605  6e-06  0.080438  0.116197  -1.8e-05  1.035046  0.0
H  H100  1  0.32689157  0.50990902  0.73465355  1  -0.0058  1.4e-05  0.077767  0.106979  5e-06  1.01834  0.0
H  H101  1  0.82688957  0.99008950  0.26534334  1  -0.005771  -1.5e-05  0.077713  0.106883  -5e-06  1.018498  0.0
H  H102  1  0.67310648  0.49009115  0.26534651  1  -0.00585  -1.4e-05  0.077768  0.106967  -5e-06  1.018327  0.0
H  H103  1  0.17311037  0.00990999  0.73465634  1  -0.00576  1.4e-05  0.077734  0.106903  5e-06  1.018464  0.0
H  H104  1  0.45343488  0.39380723  0.79768325  1  0.044292  0.00013  0.080904  0.115829  0.00015  1.040689  0.0
H  H105  1  0.95342903  0.10619076  0.20231429  1  0.044121  -0.000131  0.08087  0.11567  -0.000151  1.040782  0.0
H  H106  1  0.54656317  0.60619360  0.20231654  1  0.044606  -0.000122  0.080903  0.115826  -0.000147  1.04067  0.0
H  H107  1  0.04656997  0.89381074  0.79768523  1  0.044138  0.00013  0.080871  0.11567  0.000149  1.040802  0.0
H  H108  1  0.42619169  0.46731566  0.84912900  1  0.027121  1.4e-05  0.078954  0.107366  4e-06  1.034431  0.0
H  H109  1  0.92621158  0.03268439  0.15086696  1  0.027133  -4.2e-05  0.078925  0.107301  -2.3e-05  1.034483  0.0
H  H110  1  0.57380825  0.53268518  0.15087079  1  0.027114  -8e-06  0.07894  0.107352  -1e-06  1.034445  0.0
H  H111  1  0.07378647  0.96731644  0.84913250  1  0.02702  4.6e-05  0.078912  0.107283  2.5e-05  1.034531  0.0
H  H112  1  0.48045356  0.50950052  0.80178012  1  0.02351  7e-06  0.077861  0.105552  -4e-06  1.017379  0.0
H  H113  1  0.98045803  0.99049676  0.19821634  1  0.024214  -6e-06  0.077828  0.105493  4e-06  1.017379  0.0
H  H114  1  0.51954543  0.49050032  0.19821967  1  0.023474  8e-06  0.077877  0.105592  5e-06  1.017344  0.0
H  H115  1  0.01954191  0.00950474  0.80178285  1  0.024175  5e-06  0.077824  0.105462  -7e-06  1.017422  0.0
H  H116  1  0.68656736  0.15241834  0.93172424  1  0.018761  6e-06  0.077956  0.107584  -1e-06  1.021478  0.0
H  H117  1  0.18657055  0.34757876  0.06827818  1  0.018867  -3e-06  0.077957  0.107628  0.0  1.021535  0.0
H  H118  1  0.31343069  0.84757715  0.06827477  1  0.018848  -9e-06  0.078001  0.107628  -5e-06  1.02153  0.0
H  H119  1  0.81342750  0.65242207  0.93172227  1  0.01883  -3e-06  0.077952  0.107615  -3e-06  1.021542  0.0
H  H120  1  0.68558955  0.27069857  0.93706122  1  0.045375  -2.6e-05  0.081322  0.118556  -2.7e-05  1.0346  0.0
H  H121  1  0.18560378  0.22930260  0.06294192  1  0.045565  1.3e-05  0.081375  0.118561  2.2e-05  1.034769  0.0
H  H122  1  0.31441134  0.72929693  0.06293910  1  0.0454  -4.3e-05  0.081323  0.118529  -3e-05  1.034549  0.0
H  H123  1  0.81440090  0.77069891  0.93705825  1  0.045538  5e-06  0.081356  0.118533  -1.8e-05  1.034707  0.0
H  H124  1  0.83125293  0.21042649  0.93071522  1  0.001443  3.6e-05  0.077938  0.110976  3.6e-05  1.024069  0.0
H  H125  1  0.33126507  0.28956642  0.06927820  1  0.001143  1.9e-05  0.077982  0.111016  3e-05  1.02413  0.0
H  H126  1  0.16874701  0.78956767  0.06928499  1  0.001454  -2.9e-05  0.077965  0.110983  -3.2e-05  1.024048  0.0
H  H127  1  0.66873582  0.71043709  0.93072215  1  0.001177  2.2e-05  0.077999  0.111008  3.3e-05  1.024159  0.0
H  H128  1  0.52851018  0.14748910  0.86456551  1  0.025416  1.1e-05  0.077615  0.10487  -4e-06  1.021734  0.0
H  H129  1  0.02850844  0.35251483  0.13543707  1  0.025395  -1.5e-05  0.077628  0.104878  -2e-06  1.021687  0.0
H  H130  1  0.47148976  0.85251173  0.13543395  1  0.025386  9e-06  0.077602  0.104846  7e-06  1.021751  0.0
H  H131  1  0.97149056  0.64748401  0.86456288  1  0.02538  7e-06  0.077632  0.104902  -6e-06  1.021672  0.0
H  H132  1  0.57464470  0.19633002  0.81828136  1  -0.014616  3.7e-05  0.079075  0.107374  1.9e-05  1.033201  0.0
H  H133  1  0.07462369  0.30367220  0.18172212  1  -0.014806  -3.8e-05  0.079083  0.107429  -2.1e-05  1.033132  0.0
H  H134  1  0.42535714  0.80367215  0.18171887  1  -0.014654  -1.9e-05  0.079068  0.10737  -1.7e-05  1.033215  0.0
H  H135  1  0.92537531  0.69632663  0.81827783  1  -0.014809  3.7e-05  0.079093  0.107436  2e-05  1.033154  0.0
H  H136  1  0.53607980  0.26501057  0.87010594  1  0.050373  0.000139  0.080654  0.116346  0.000171  1.037627  0.0
H  H137  1  0.03608345  0.23499497  0.12989570  1  0.050585  -0.000129  0.080646  0.116265  -0.000153  1.037746  0.0
H  H138  1  0.46392393  0.73499094  0.12989456  1  0.050378  0.000129  0.080669  0.116355  0.000166  1.037664  0.0
H  H139  1  0.96391839  0.76500453  0.87010365  1  0.050625  0.000123  0.08065  0.116293  0.000147  1.037755  0.0
H  H140  1  0.77242571  0.25630755  0.85912060  1  -0.011427  6e-06  0.073618  0.047965  -1e-06  1.03039  0.0
H  H141  1  0.27242561  0.24369110  0.14087786  1  -0.011416  4e-06  0.073636  0.048052  4e-06  1.030346  0.0
H  H142  1  0.22757707  0.74369196  0.14088071  1  -0.011422  -9e-06  0.073616  0.047947  -1e-06  1.030456  0.0
H  H143  1  0.72757529  0.75631041  0.85912265  1  -0.011434  4e-06  0.073635  0.04804  -2e-06  1.030359  0.0
H  H144  1  0.76658855  0.13884129  0.85336106  1  0.006462  3e-06  0.077428  0.059531  -0.0  0.99804  0.0
H  H145  1  0.26657916  0.36115498  0.14663654  1  0.006564  5e-06  0.077468  0.059614  9e-06  0.998061  0.0
H  H146  1  0.23341234  0.86115820  0.14663829  1  0.006496  0.0  0.077435  0.059556  1e-06  0.998013  0.0
H  H147  1  0.73341983  0.63884719  0.85336434  1  0.006554  4e-06  0.077461  0.059578  1e-06  0.998119  0.0
H  H148  1  0.82537658  0.43391695  0.60951778  1  0.043907  -4e-06  0.081729  0.118703  1e-05  1.028721  0.0
H  H149  1  0.32538678  0.06608568  0.39048528  1  0.043946  4e-06  0.081686  0.118706  -1e-05  1.028702  0.0
H  H150  1  0.17461957  0.56608322  0.39048294  1  0.043942  4e-06  0.081728  0.118692  -1e-05  1.028661  0.0
H  H151  1  0.67461127  0.93391449  0.60951445  1  0.043953  -4e-06  0.081669  0.118669  1e-05  1.028682  0.0
H  H152  1  0.96142910  0.36678200  0.61107542  1  0.020375  1.5e-05  0.078632  0.108306  4e-06  1.01236  0.0
H  H153  1  0.46144044  0.13321287  0.38891783  1  0.0199  -1.5e-05  0.078626  0.108326  -4e-06  1.012476  0.0
H  H154  1  0.03856895  0.63321884  0.38892535  1  0.020345  -1.5e-05  0.078628  0.108297  -4e-06  1.012383  0.0
H  H155  1  0.53855855  0.86678596  0.61108146  1  0.019939  1.5e-05  0.078634  0.108325  4e-06  1.012498  0.0
H  H156  1  0.80888983  0.31626660  0.60520202  1  0.025059  -1e-06  0.078913  0.11265  4e-06  1.028212  0.0
H  H157  1  0.30889330  0.18373421  0.39480114  1  0.025192  1e-06  0.079003  0.112764  -4e-06  1.028107  0.0
H  H158  1  0.19110917  0.68373357  0.39479804  1  0.025141  1e-06  0.078952  0.112687  -4e-06  1.028187  0.0
H  H159  1  0.69110570  0.81626595  0.60519859  1  0.025211  -1e-06  0.079012  0.11275  4e-06  1.028089  0.0
H  H160  1  0.75727659  0.34463116  0.48622495  1  0.020848  -4e-06  0.078198  0.101693  -9e-06  1.028379  0.0
H  H161  1  0.25726082  0.15537165  0.51377796  1  0.020851  4e-06  0.078217  0.101674  9e-06  1.028413  0.0
H  H162  1  0.24272335  0.65537035  0.51377555  1  0.020829  4e-06  0.078204  0.101688  9e-06  1.028408  0.0
H  H163  1  0.74274101  0.84462986  0.48622221  1  0.020848  -4e-06  0.0782  0.101661  -9e-06  1.028464  0.0
H  H164  1  0.69120894  0.41083608  0.53482786  1  0.010121  -1e-06  0.077785  0.102858  0.0  1.026876  0.0
H  H165  1  0.19121523  0.08916814  0.46517589  1  0.009912  1e-06  0.07775  0.102839  -0.0  1.026825  0.0
H  H166  1  0.30879006  0.58916543  0.46517264  1  0.010163  1e-06  0.077722  0.102777  -0.0  1.026866  0.0
H  H167  1  0.80878566  0.91083203  0.53482450  1  0.009903  -1e-06  0.077769  0.10288  0.0  1.026797  0.0
H  H168  1  0.69671424  0.29301376  0.52977008  1  0.03267  -5.4e-05  0.080396  0.110004  -4.2e-05  1.02425  0.0
H  H169  1  0.19670966  0.20699084  0.47023273  1  0.032573  5.4e-05  0.080374  0.10998  4.1e-05  1.024153  0.0
H  H170  1  0.30328570  0.70698775  0.47023009  1  0.032648  5.4e-05  0.080378  0.10997  4.1e-05  1.024244  0.0
H  H171  1  0.80329029  0.79300933  0.52976700  1  0.032579  -5.4e-05  0.08038  0.110004  -4.2e-05  1.024142  0.0
H  H172  1  0.93108067  0.41621789  0.53661137  1  -0.002193  -6.8e-05  0.079462  0.065011  -6.8e-05  0.999707  0.0
H  H173  1  0.43108245  0.08378058  0.46338550  1  -0.002183  6.8e-05  0.079482  0.065023  6.8e-05  0.999637  0.0
H  H174  1  0.06891832  0.58378363  0.46338979  1  -0.002187  6.8e-05  0.079464  0.065015  6.8e-05  0.999669  0.0
H  H175  1  0.56891749  0.91621958  0.53661424  1  -0.002185  -6.8e-05  0.079465  0.065005  -6.8e-05  0.999633  0.0
H  H176  1  0.93529669  0.29917949  0.53212101  1  0.010239  -2e-05  0.075079  0.0548  -1.3e-05  1.018782  0.0
H  H177  1  0.43528886  0.20081608  0.46787472  1  0.010414  2e-05  0.075062  0.054801  1.3e-05  1.018756  0.0
H  H178  1  0.06470231  0.70082202  0.46787982  1  0.010203  2e-05  0.07508  0.054803  1.3e-05  1.018756  0.0
H  H179  1  0.56471298  0.79918408  0.53212468  1  0.010423  -2e-05  0.075041  0.054775  -1.3e-05  1.018772  0.0
C  C180  1  0.82003821  0.43361596  0.80571061  1  -0.022558  -0.00144  -0.008904  0.056369  -0.000999  4.032994  -0.001
C  C181  1  0.32003895  0.06637493  0.19429207  1  -0.022391  0.001434  -0.008883  0.056615  0.000985  4.033075  0.001
C  C182  1  0.17996363  0.56638421  0.19428945  1  -0.022313  0.001349  -0.008881  0.05646  0.000941  4.032949  0.001
C  C183  1  0.67996194  0.93362457  0.80570826  1  -0.022275  -0.001433  -0.008869  0.056643  -0.000994  4.032954  -0.001
C  C184  1  0.26088259  0.29921017  0.88323191  1  0.030245  0.002628  -0.074694  -0.141531  0.001788  3.921452  0.002
C  C185  1  0.76092737  0.20072219  0.11674979  1  -0.03884  0.000861  -0.075351  -0.142962  0.000491  3.923086  0.001
C  C186  1  0.73910694  0.70079602  0.11676899  1  0.03039  0.002745  -0.074759  -0.141621  0.001865  3.921658  0.002
C  C187  1  0.23908110  0.79928065  0.88324951  1  -0.038771  -0.002181  -0.075365  -0.142922  -0.001408  3.92301  -0.002
C  C188  1  0.84093313  0.44269082  0.85395646  1  0.013658  1.9e-05  0.004548  0.053622  -8e-06  4.011259  0.0
C  C189  1  0.34094072  0.05730436  0.14605066  1  0.013859  0.000103  0.004518  0.053564  8.1e-05  4.011692  0.0
C  C190  1  0.15906966  0.55731069  0.14604469  1  0.013271  0.000585  0.004533  0.053598  0.000412  4.011362  0.0
C  C191  1  0.65906017  0.94269515  0.85394967  1  0.013847  -0.0001  0.00453  0.053551  -8.1e-05  4.011705  0.0
C  C192  1  0.37816137  0.34448599  0.55226200  1  -0.076704  0.001617  -0.073629  -0.130547  0.001003  3.907097  0.001
C  C193  1  0.87815696  0.15550452  0.44773352  1  -0.076411  -0.001615  -0.073576  -0.130428  -0.001017  3.906869  -0.001
C  C194  1  0.62184047  0.65551284  0.44773697  1  -0.076748  -0.001617  -0.073671  -0.130556  -0.001018  3.90712  -0.001
C  C195  1  0.12184299  0.84449364  0.55226605  1  -0.076484  0.001615  -0.073547  -0.130371  0.001002  3.906883  0.001
C  C196  1  0.08264533  0.11636060  0.95592799  1  1.553579  -0.000424  0.216133  0.572423  -0.000413  4.16582  -0.001
C  C197  1  0.58284086  0.38341443  0.04411551  1  1.554908  -0.001934  0.216273  0.572824  0.000695  4.162933  -0.005
C  C198  1  0.91735935  0.88364225  0.04407328  1  1.55346  0.000798  0.216131  0.572498  0.000597  4.165482  0.001
C  C199  1  0.41716288  0.61659040  0.95588298  1  1.553958  -0.001603  0.216222  0.572865  0.000928  4.162997  -0.004
C  C200  1  0.91373038  0.55464056  0.71201520  1  1.555765  -0.00048  0.216202  0.573124  -0.000412  4.162503  -0.001
C  C201  1  0.41373433  0.94536083  0.28798171  1  1.555984  0.000481  0.216288  0.573174  0.000356  4.162665  0.001
C  C202  1  0.08627146  0.44535961  0.28798486  1  1.555567  0.000484  0.216212  0.573031  0.000355  4.162464  0.001
C  C203  1  0.58626656  0.05463867  0.71201830  1  1.555967  -0.000481  0.216282  0.573164  -0.000414  4.162689  -0.001
C  C204  1  0.13177470  0.54643178  0.62043929  1  1.574114  0.000212  0.217996  0.57597  0.000233  4.165128  0.001
C  C205  1  0.63178082  0.95357285  0.37956334  1  1.575362  -0.00021  0.218  0.576102  -0.000291  4.164883  -0.001
C  C206  1  0.86823187  0.45356973  0.37956153  1  1.574101  -0.000212  0.217946  0.575979  -0.000291  4.165173  -0.001
C  C207  1  0.36821723  0.04642799  0.62043710  1  1.574944  0.000209  0.218086  0.576256  0.000234  4.16468  0.001
C  C208  1  0.13824900  0.18389176  0.93120110  1  0.008503  0.001358  -0.01156  -0.014057  0.000895  3.977902  0.001
C  C209  1  0.63833890  0.31601786  0.06882659  1  0.003689  0.015419  -0.012958  -0.015257  0.010818  3.980294  0.012
C  C210  1  0.86176516  0.81610039  0.06879795  1  0.008243  -0.000469  -0.011547  -0.014019  -0.000402  3.977504  0.0
C  C211  1  0.36164210  0.68397028  0.93117212  1  0.004301  0.016811  -0.012984  -0.015135  0.011771  3.980363  0.013
C  C212  1  0.36279384  0.37979324  0.95318421  1  1.566534  -0.001779  0.218401  0.581138  0.000756  4.157897  -0.004
C  C213  1  0.86309884  0.11998929  0.04675103  1  1.568141  0.000644  0.218383  0.580291  0.000536  4.159056  0.001
C  C214  1  0.63720137  0.62020558  0.04681378  1  1.566661  -0.002132  0.21853  0.581331  0.000502  4.157618  -0.005
C  C215  1  0.13690205  0.88000821  0.95324881  1  1.568099  -0.000233  0.218535  0.580532  -0.000319  4.15892  -0.001
C  C216  1  0.31466643  0.40120003  0.52801743  1  0.035717  0.00141  -0.00846  0.059695  0.000992  4.02421  0.001
C  C217  1  0.81466579  0.09878643  0.47198158  1  0.036142  -0.00141  -0.008482  0.059604  -0.001002  4.024247  -0.001
C  C218  1  0.68533446  0.59879946  0.47198159  1  0.035923  -0.00141  -0.008451  0.059617  -0.001002  4.024255  -0.001
C  C219  1  0.18533226  0.90121240  0.52801837  1  0.036138  0.00141  -0.008486  0.059711  0.000992  4.024126  0.001
C  C220  1  0.21864030  0.25029786  0.95307041  1  -0.021887  0.004416  -0.068995  -0.100224  0.00289  3.890772  0.003
C  C221  1  0.71871337  0.24961875  0.04692633  1  -0.021397  -0.000181  -0.069182  -0.101002  -3e-06  3.891438  0.0
C  C222  1  0.78135301  0.74970563  0.04692732  1  -0.021451  0.00218  -0.069022  -0.100219  0.001472  3.890649  0.001
C  C223  1  0.28128373  0.75037939  0.95306996  1  -0.021681  0.002078  -0.06936  -0.101273  0.001415  3.891811  0.002
C  C224  1  0.73800086  0.44234304  0.88293257  1  0.473693  -0.00083  0.05233  0.03501  -0.000569  3.897706  -0.001
C  C225  1  0.23801903  0.05766621  0.11708633  1  0.471954  0.000765  0.052197  0.034376  0.000513  3.897538  0.0
C  C226  1  0.26200192  0.55765780  0.11706820  1  0.473744  -0.000768  0.052327  0.034943  -0.000526  3.897714  0.0
C  C227  1  0.76198281  0.94233463  0.88291346  1  0.47196  -0.000762  0.052164  0.034418  -0.000517  3.897545  0.0
C  C228  1  0.27885315  0.30828632  0.92903918  1  0.003675  0.016551  -0.008956  -0.005444  0.011655  3.978525  0.013
C  C229  1  0.77892544  0.19160167  0.07093873  1  0.06952  0.000547  -0.00789  -0.003529  0.000272  3.975852  0.0
C  C230  1  0.72113164  0.69172854  0.07096213  1  0.003512  0.015345  -0.008946  -0.005523  0.010792  3.978398  0.012
C  C231  1  0.22108303  0.80840518  0.92906222  1  0.069926  0.001342  -0.007832  -0.003448  0.000876  3.97603  0.001
C  C232  1  0.22924067  0.46451756  0.55003418  1  -0.022873  0.001656  -0.074402  -0.1421  0.001055  3.921638  0.001
C  C233  1  0.72924483  0.03547935  0.44996782  1  -0.023047  -0.001655  -0.07441  -0.142058  -0.00107  3.921662  -0.001
C  C234  1  0.77076117  0.53548261  0.44996522  1  -0.022951  -0.001657  -0.074381  -0.142  -0.00107  3.921682  -0.001
C  C235  1  0.27075322  0.96452016  0.55003251  1  -0.023016  0.001656  -0.074491  -0.142288  0.001054  3.92169  0.001
C  C236  1  0.77556736  0.42160172  0.71441644  1  -0.052869  0.002164  -0.069307  -0.099581  0.001358  3.893173  0.002
C  C237  1  0.27556857  0.07840014  0.28558604  1  -0.053065  -0.002151  -0.0692  -0.099571  -0.001372  3.893209  -0.002
C  C238  1  0.22443543  0.57839712  0.28558416  1  -0.052793  -0.002113  -0.06934  -0.099642  -0.001347  3.89315  -0.002
C  C239  1  0.72443516  0.92160003  0.71441402  1  -0.053231  0.002152  -0.069251  -0.099485  0.00135  3.893223  0.002
C  C240  1  0.86643615  0.46468177  0.94526908  1  0.547593  -0.000818  0.042062  -0.031322  -0.000541  3.933144  -0.001
C  C241  1  0.36649982  0.03532407  0.05473296  1  0.548118  0.00074  0.042108  -0.031942  0.000487  3.932633  0.0
C  C242  1  0.13356569  0.53531907  0.05473136  1  0.547599  -0.000848  0.042082  -0.031395  -0.000562  3.933283  -0.001
C  C243  1  0.63350486  0.96467543  0.94526672  1  0.547715  -0.000736  0.042172  -0.031677  -0.00049  3.932763  0.0
C  C244  1  0.15543626  0.22485997  0.81312936  1  -0.044796  0.000243  0.004452  0.055089  0.000138  4.009323  0.0
C  C245  1  0.65547311  0.27509865  0.18686987  1  -0.044754  0.000162  0.004598  0.055239  9.6e-05  4.008794  0.0
C  C246  1  0.84455990  0.77514087  0.18687109  1  -0.044818  0.000209  0.004408  0.055032  0.000122  4.009233  0.0
C  C247  1  0.34452684  0.72489951  0.81312969  1  -0.044943  0.000207  0.004633  0.055271  0.000127  4.008889  0.0
C  C248  1  0.73432550  0.37042012  0.78375336  1  -0.02557  -0.001743  -0.074065  -0.141071  -0.001127  3.921769  -0.001
C  C249  1  0.23432336  0.12957720  0.21624971  1  -0.025915  0.001755  -0.073996  -0.141061  0.001118  3.921693  0.001
C  C250  1  0.26567540  0.62958005  0.21624736  1  -0.025693  0.001789  -0.074035  -0.141038  0.001144  3.921748  0.001
C  C251  1  0.76567942  0.87042231  0.78375062  1  -0.025966  -0.001755  -0.073987  -0.140997  -0.001133  3.92168  -0.001
C  C252  1  0.35448988  0.34952031  0.59756881  1  0.056708  -0.001523  -0.011286  -0.010897  -0.001114  3.970053  -0.001
C  C253  1  0.85448595  0.15047344  0.40242894  1  0.056688  0.001522  -0.01138  -0.011027  0.001084  3.970116  0.001
C  C254  1  0.64551101  0.65047852  0.40243048  1  0.057145  0.00152  -0.011255  -0.010879  0.001084  3.970159  0.001
C  C255  1  0.14551115  0.84952473  0.59757062  1  0.056697  -0.001524  -0.011396  -0.011066  -0.001115  3.970211  -0.001
C  C256  1  0.27400454  0.41552771  0.61970298  1  0.044263  -0.002267  -0.069973  -0.104525  -0.001469  3.893333  -0.002
C  C257  1  0.77400850  0.08447356  0.38029823  1  0.043949  0.002267  -0.069998  -0.104453  0.001446  3.893115  0.002
C  C258  1  0.72599730  0.58447179  0.38029604  1  0.044548  0.002267  -0.069933  -0.104439  0.001446  3.89339  0.002
C  C259  1  0.22598861  0.91552594  0.61970178  1  0.044014  -0.002267  -0.069989  -0.104502  -0.001468  3.893085  -0.002
C  C260  1  0.03444691  0.21085374  0.79427451  1  0.085308  -0.000666  -0.076493  -0.216769  -0.000435  3.938607  0.0
C  C261  1  0.53447127  0.28913989  0.20573079  1  0.0851  0.000727  -0.076656  -0.217021  0.000467  3.938442  0.0
C  C262  1  0.96555020  0.78914777  0.20572665  1  0.085171  0.000673  -0.076524  -0.21686  0.000449  3.938605  0.0
C  C263  1  0.46552773  0.71085962  0.79426987  1  0.084994  -0.000695  -0.076644  -0.216949  -0.000472  3.938413  0.0
C  C264  1  0.96219439  0.45554891  0.87268432  1  0.060328  -0.00082  -0.076766  -0.217153  -0.000551  3.944132  -0.001
C  C265  1  0.46219919  0.04444861  0.12731107  1  0.061741  0.000744  -0.076737  -0.217079  0.000493  3.944103  0.0
C  C266  1  0.03780935  0.54445193  0.12731613  1  0.060333  -0.000731  -0.076818  -0.2173  -0.000467  3.944023  0.0
C  C267  1  0.53780171  0.95555089  0.87268893  1  0.061768  -0.000742  -0.076777  -0.217166  -0.000498  3.943988  0.0
C  C268  1  0.25865552  0.22474074  0.78421971  1  0.527029  -0.000812  0.052819  0.035873  -0.000566  3.896622  -0.001
C  C269  1  0.75867706  0.27524994  0.21577883  1  0.52659  0.000762  0.052691  0.035758  0.00052  3.89649  0.0
C  C270  1  0.74134064  0.77525876  0.21578127  1  0.526921  0.000681  0.052796  0.035847  0.000451  3.896835  0.0
C  C271  1  0.24132194  0.72474889  0.78422144  1  0.526628  -0.000607  0.052661  0.035706  -0.000411  3.896614  0.0
C  C272  1  0.11347830  0.17850779  0.88594529  1  -0.066415  0.00147  -0.073795  -0.130012  0.000997  3.904821  0.0
C  C273  1  0.61349952  0.32144644  0.11407091  1  -0.064434  0.001424  -0.07387  -0.130624  0.001023  3.904586  0.001
C  C274  1  0.88653017  0.82148637  0.11405393  1  -0.066402  0.003379  -0.073801  -0.129964  0.002138  3.904779  0.002
C  C275  1  0.38649001  0.67854504  0.88592776  1  -0.064569  0.000209  -0.07384  -0.130809  0.000212  3.904541  0.0
C  C276  1  0.71583581  0.36270764  0.73804860  1  -0.032754  0.001093  -0.007623  -0.004165  0.000768  3.977243  0.001
C  C277  1  0.21583756  0.13729130  0.26195562  1  -0.031887  -0.001092  -0.00774  -0.004147  -0.0008  3.97733  -0.001
C  C278  1  0.28416414  0.63729187  0.26195238  1  -0.032811  -0.001111  -0.007717  -0.004263  -0.000813  3.977332  -0.001
C  C279  1  0.78416523  0.86270887  0.73804509  1  -0.031764  0.001093  -0.007778  -0.004373  0.000768  3.977482  0.001
C  C280  1  0.97238183  0.46631259  0.91846636  1  0.376214  0.000203  0.105973  0.251257  0.000158  4.081368  0.0
C  C281  1  0.47242276  0.03368442  0.08153202  1  0.375891  -0.00011  0.106038  0.251589  -0.000102  4.081008  0.0
C  C282  1  0.02762001  0.53368891  0.08153349  1  0.37643  0.000266  0.106002  0.251389  0.000194  4.081333  0.0
C  C283  1  0.52758098  0.96631375  0.91846852  1  0.375935  0.000108  0.106064  0.251541  9.7e-05  4.080983  0.0
C  C284  1  0.88274411  0.49079279  0.78155383  1  -0.031242  -0.001693  -0.075346  -0.132233  -0.00109  3.907198  -0.001
C  C285  1  0.38275250  0.00919949  0.21844354  1  -0.031028  0.001715  -0.075258  -0.132203  0.001089  3.907232  0.001
C  C286  1  0.11725962  0.50920737  0.21844623  1  -0.031194  0.001771  -0.075394  -0.132331  0.001126  3.907227  0.001
C  C287  1  0.61724934  0.99079934  0.78155673  1  -0.031151  -0.001711  -0.075166  -0.13209  -0.001103  3.907214  -0.001
C  C288  1  0.02484868  0.19841208  0.74842464  1  0.390839  0.000171  0.105296  0.251878  0.000136  4.078967  0.0
C  C289  1  0.52484057  0.30159136  0.25157679  1  0.390449  -9.8e-05  0.10528  0.251768  -8.9e-05  4.07924  0.0
C  C290  1  0.97515031  0.80158941  0.25157455  1  0.390817  -8e-05  0.105289  0.251905  -7.7e-05  4.078913  0.0
C  C291  1  0.47515843  0.69840814  0.74842354  1  0.390626  9.6e-05  0.10523  0.251678  8.8e-05  4.079231  0.0
C  C292  1  0.17578553  0.23531583  0.86147201  1  -0.014559  -0.000154  -0.009268  0.054072  -0.00018  4.035954  0.0
C  C293  1  0.67580190  0.26462101  0.13852326  1  -0.01327  0.001664  -0.008994  0.05473  0.00106  4.035465  0.001
C  C294  1  0.82420968  0.76468500  0.13852745  1  -0.013985  0.001277  -0.009192  0.054163  0.000829  4.035884  0.001
C  C295  1  0.32419426  0.73537582  0.86147619  1  -0.013281  0.000145  -0.009037  0.054683  4e-05  4.035443  0.0
C  C296  1  0.33605978  0.39264710  0.47979322  1  0.001379  0.000484  0.004943  0.055402  0.000347  4.008771  0.0
C  C297  1  0.83607032  0.10734493  0.52020475  1  0.00095  -0.000484  0.0049  0.055323  -0.00035  4.008639  0.0
C  C298  1  0.66394206  0.60735173  0.52020575  1  0.001023  -0.000484  0.004929  0.055419  -0.00035  4.008653  0.0
C  C299  1  0.16392867  0.89265391  0.47979552  1  0.001514  0.000484  0.004954  0.055417  0.000347  4.008624  0.0
C  C300  1  0.41301887  0.28316003  0.62237147  1  1.54779  0.000547  0.214621  0.577102  0.000463  4.161089  0.001
C  C301  1  0.91301744  0.21684206  0.37762767  1  1.547453  -0.000551  0.214654  0.576951  -0.000521  4.161073  -0.001
C  C302  1  0.58698202  0.71683813  0.37762776  1  1.547422  -0.000546  0.214648  0.577131  -0.000521  4.161077  -0.001
C  C303  1  0.08698061  0.78315811  0.62237304  1  1.547426  0.000551  0.214645  0.576969  0.000463  4.161198  0.001
C  C304  1  0.21290869  0.47352826  0.59590609  1  -0.110561  -0.000889  -0.007418  -0.004426  -0.000638  3.982067  -0.001
C  C305  1  0.71291008  0.02646949  0.40409688  1  -0.111038  0.000886  -0.007321  -0.004317  0.000605  3.981569  0.001
C  C306  1  0.78709314  0.52647190  0.40409364  1  -0.110721  0.000889  -0.007467  -0.004517  0.000606  3.982113  0.001
C  C307  1  0.28708797  0.97353068  0.59590351  1  -0.110628  -0.000888  -0.007249  -0.004168  -0.000637  3.981457  -0.001
C  C308  1  0.13110883  0.19941164  0.72169108  1  0.587525  -0.000792  0.043357  -0.03156  -0.000533  3.934709  0.0
C  C309  1  0.63109597  0.30059032  0.27831089  1  0.587264  0.00072  0.043332  -0.031554  0.000478  3.934688  0.0
C  C310  1  0.86888827  0.80058920  0.27830969  1  0.587518  0.000651  0.043386  -0.031498  0.00043  3.934541  0.0
C  C311  1  0.36890398  0.69940985  0.72168950  1  0.587268  -0.000686  0.043347  -0.031557  -0.000457  3.934727  0.0
C  C312  1  0.63291534  0.29088543  0.71350535  1  1.569091  -0.000235  0.218972  0.581421  -0.000318  4.156284  -0.001
C  C313  1  0.13291436  0.20912114  0.28649953  1  1.568552  0.000232  0.21893  0.581247  0.000261  4.156798  0.001
C  C314  1  0.36708649  0.70911541  0.28649477  1  1.569285  0.000236  0.219001  0.581486  0.000261  4.15631  0.001
C  C315  1  0.86708938  0.79087903  0.71350086  1  1.568562  -0.000232  0.219041  0.581476  -0.000317  4.156728  -0.001
C  C316  1  0.85694657  0.48708626  0.73648177  1  0.022454  0.001723  -0.011224  -0.013827  0.001221  3.976546  0.001
C  C317  1  0.35695086  0.01291004  0.26351737  1  0.022028  -0.001728  -0.011208  -0.013619  -0.001254  3.976711  -0.001
C  C318  1  0.14305432  0.51291390  0.26351764  1  0.022385  -0.001741  -0.01119  -0.013704  -0.001261  3.976451  -0.001
C  C319  1  0.64304908  0.98708813  0.73648285  1  0.022123  0.001728  -0.011299  -0.013864  0.001224  3.976879  0.001
C  C320  1  0.45819893  0.38223036  0.46157547  1  -0.004419  -0.000661  -0.076984  -0.219481  -0.000419  3.936263  0.0
C  C321  1  0.95820036  0.11776535  0.53841705  1  -0.00479  0.000662  -0.076934  -0.219333  0.000416  3.936182  0.0
C  C322  1  0.54180386  0.61776914  0.53842356  1  -0.004411  0.000661  -0.076924  -0.219452  0.000415  3.936069  0.0
C  C323  1  0.04179864  0.88223215  0.46158311  1  -0.004785  -0.000662  -0.076965  -0.219425  -0.00042  3.936273  0.0
C  C324  1  0.36493308  0.37055041  0.38855373  1  0.624721  -0.000773  0.042831  -0.032823  -0.000525  3.937489  0.0
C  C325  1  0.86491316  0.12944615  0.61144466  1  0.624593  0.000775  0.042795  -0.032954  0.00052  3.937467  0.0
C  C326  1  0.63506782  0.62944842  0.61144523  1  0.624446  0.000773  0.042818  -0.032866  0.00052  3.93734  0.0
C  C327  1  0.13508394  0.87055202  0.38855555  1  0.624835  -0.000774  0.042791  -0.03302  -0.000526  3.937433  0.0
C  C328  1  0.47018426  0.37127287  0.41585605  1  0.401658  0.000168  0.108107  0.259074  0.000132  4.069692  0.0
C  C329  1  0.97017421  0.12872354  0.58413620  1  0.401895  -0.000168  0.108078  0.259048  -0.000134  4.069492  0.0
C  C330  1  0.52981663  0.62872662  0.58414298  1  0.40167  -0.000168  0.108027  0.259016  -0.000133  4.069542  0.0
C  C331  1  0.02982573  0.87127395  0.41586364  1  0.401875  0.000168  0.108045  0.259099  0.000132  4.069517  0.0
C  C332  1  0.23397273  0.39108583  0.45036393  1  0.490494  -0.0007  0.05039  0.030065  -0.000475  3.909507  0.0
C  C333  1  0.73397521  0.10891352  0.54964096  1  0.491625  0.000701  0.050379  0.030082  0.000471  3.90941  0.0
C  C334  1  0.76603006  0.60891300  0.54963537  1  0.490604  0.0007  0.050423  0.030118  0.000471  3.909383  0.0
C  C335  1  0.26602284  0.89108732  0.45035883  1  0.490938  -0.000701  0.050361  0.02996  -0.000476  3.909374  0.0
C  C336  1  0.28104441  0.47232297  0.79826459  1  -0.020415  6e-06  -0.172704  -0.039157  -0.0  3.983435  0.0
C  C337  1  0.78104767  0.02767926  0.20173598  1  -0.020325  -8e-06  -0.172652  -0.039073  -2e-06  3.983302  0.0
C  C338  1  0.71895458  0.52767787  0.20173553  1  -0.020767  -1.3e-05  -0.172736  -0.039227  -1.3e-05  3.983477  0.0
C  C339  1  0.21895227  0.97232224  0.79826354  1  -0.020382  2.4e-05  -0.172686  -0.039102  1.5e-05  3.983388  0.0
C  C340  1  0.26772947  0.46110783  0.74791528  1  -0.007512  5.1e-05  -0.256332  -0.357992  3.8e-05  3.927971  0.0
C  C341  1  0.76772477  0.03889243  0.25208618  1  -0.007594  -5.2e-05  -0.256322  -0.357916  -3.8e-05  3.927985  0.0
C  C342  1  0.73226763  0.53889367  0.25208456  1  -0.007461  -5.4e-05  -0.256304  -0.357892  -3.9e-05  3.927986  0.0
C  C343  1  0.23227518  0.96110708  0.74791447  1  -0.007601  5.1e-05  -0.256384  -0.358016  3.7e-05  3.9281  0.0
C  C344  1  0.41741324  0.45998450  0.81285472  1  -0.115384  0.000196  -0.256022  -0.375157  0.000125  3.958413  0.0
C  C345  1  0.91741774  0.04001401  0.18714192  1  -0.115658  -0.000217  -0.255862  -0.3748  -0.000143  3.958459  0.0
C  C346  1  0.58258765  0.54001634  0.18714507  1  -0.115312  -0.000254  -0.256057  -0.375196  -0.000169  3.958353  0.0
C  C347  1  0.08258126  0.95998683  0.81285787  1  -0.115528  0.000219  -0.255833  -0.374744  0.000145  3.958486  0.0
C  C348  1  0.73178143  0.20932699  0.92012929  1  -0.054641  7e-06  -0.255577  -0.357339  1.4e-05  3.928828  0.0
C  C349  1  0.23179143  0.29067109  0.07987006  1  -0.054542  2.4e-05  -0.255668  -0.357445  2e-05  3.92935  0.0
C  C350  1  0.26821662  0.79067050  0.07987087  1  -0.054745  -6.7e-05  -0.255646  -0.357338  -5e-05  3.92887  0.0
C  C351  1  0.76820756  0.70933041  0.92012979  1  -0.054504  2.8e-05  -0.255668  -0.357395  2.7e-05  3.929271  0.0
C  C352  1  0.58259344  0.20265269  0.85453364  1  -0.081228  0.000211  -0.254927  -0.371441  0.000132  3.953348  0.0
C  C353  1  0.08258680  0.29735045  0.14546882  1  -0.081224  -0.000202  -0.254957  -0.371374  -0.000128  3.953323  0.0
C  C354  1  0.41740745  0.79734881  0.14546621  1  -0.081197  0.000234  -0.254921  -0.371429  0.000149  3.953432  0.0
C  C355  1  0.91741219  0.70264972  0.85453091  1  -0.081259  0.000192  -0.254976  -0.371459  0.000118  3.953352  0.0
C  C356  1  0.72023763  0.20088626  0.86984653  1  0.012828  1.9e-05  -0.172723  -0.039237  1e-05  3.98563  0.0
C  C357  1  0.22023609  0.29911175  0.13015247  1  0.012705  -1e-06  -0.172777  -0.039477  9e-06  3.986013  0.0
C  C358  1  0.27976326  0.79911257  0.13015342  1  0.012823  8e-06  -0.172715  -0.039252  2e-06  3.985691  0.0
C  C359  1  0.77976386  0.70088909  0.86984765  1  0.012715  1.4e-05  -0.172776  -0.039404  7e-06  3.986045  0.0
C  C360  1  0.86801309  0.36920449  0.59548617  1  -0.090149  -2.1e-05  -0.255448  -0.361053  -1.9e-05  3.940322  0.0
C  C361  1  0.36802209  0.13079391  0.40451286  1  -0.089892  2.1e-05  -0.255468  -0.361133  1.9e-05  3.940215  0.0
C  C362  1  0.13198402  0.63079568  0.40451454  1  -0.090236  2.1e-05  -0.255481  -0.361058  1.9e-05  3.940317  0.0
C  C363  1  0.63197596  0.86920626  0.59548720  1  -0.089937  -2.1e-05  -0.25546  -0.36107  -1.9e-05  3.94021  0.0
C  C364  1  0.74908519  0.35137435  0.52248696  1  -0.097735  -3.5e-05  -0.253062  -0.365722  -3.6e-05  3.970634  0.0
C  C365  1  0.24908003  0.14862821  0.47751573  1  -0.097399  3.5e-05  -0.253049  -0.365626  3.6e-05  3.970528  0.0
C  C366  1  0.25091476  0.64862715  0.47751354  1  -0.097735  3.5e-05  -0.252998  -0.365584  3.6e-05  3.970538  0.0
C  C367  1  0.75091991  0.85137196  0.52248400  1  -0.097415  -3.5e-05  -0.253075  -0.365718  -3.6e-05  3.970602  0.0
C  C368  1  0.87855976  0.35885803  0.54511237  1  0.02685  -0.0001  -0.172786  -0.040076  -7.9e-05  3.978549  0.0
C  C369  1  0.37856084  0.14114049  0.45488577  1  0.026702  0.000101  -0.172774  -0.040149  7.8e-05  3.978374  0.0
C  C370  1  0.12144019  0.64114281  0.45488808  1  0.02688  0.0001  -0.172779  -0.040103  7.8e-05  3.978511  0.0
C  C371  1  0.62144005  0.85885901  0.54511358  1  0.026696  -0.000101  -0.172723  -0.040066  -7.9e-05  3.978358  0.0
N  N372  1  0.24844975  0.37990987  0.40628459  1  -1.208672  -0.001499  -0.330422  -0.199463  -0.000656  3.55863  0.0
N  N373  1  0.74844055  0.12008939  0.59371949  1  -1.20834  0.001501  -0.330479  -0.199439  0.000647  3.55866  0.0
N  N374  1  0.75155209  0.62008963  0.59371541  1  -1.208318  0.001501  -0.330414  -0.199469  0.000648  3.558548  0.0
N  N375  1  0.25155750  0.87991144  0.40628030  1  -1.208607  -0.001501  -0.33047  -0.199343  -0.000657  3.558577  0.0
N  N376  1  0.75066180  0.45338035  0.92705229  1  -1.196574  -0.001777  -0.326618  -0.19462  -0.000559  3.543477  0.0
N  N377  1  0.25073618  0.04664096  0.07296955  1  -1.195595  0.001642  -0.327342  -0.193484  0.000736  3.547129  0.0
N  N378  1  0.24934098  0.54662049  0.07294783  1  -1.196627  -0.001665  -0.32661  -0.194498  -0.000489  3.543573  0.0
N  N379  1  0.74926755  0.95335921  0.92703084  1  -1.195219  -0.001643  -0.32736  -0.193756  -0.000748  3.54702  0.0
N  N380  1  0.24660275  0.21202681  0.74003293  1  -1.235919  -0.001653  -0.326173  -0.195792  -0.000755  3.544334  0.0
N  N381  1  0.74660014  0.28797786  0.25996616  1  -1.235856  0.001679  -0.326209  -0.195904  0.000768  3.544232  0.0
N  N382  1  0.75339625  0.78797269  0.25996674  1  -1.236031  0.001667  -0.32615  -0.195756  0.000766  3.544535  0.0
N  N383  1  0.25340075  0.71202165  0.74003417  1  -1.235841  -0.001532  -0.326233  -0.195919  -0.000689  3.544349  0.0
O  O384  1  0.86016157  0.56382606  0.67580080  1  -1.116619  -0.07572  -0.309151  -0.52601  -0.049989  2.386891  -0.068
O  O385  1  0.36015406  0.93617412  0.32420027  1  -1.116558  0.075737  -0.309203  -0.526109  0.049477  2.386796  0.068
O  O386  1  0.13983648  0.43617345  0.32419953  1  -1.116258  0.075714  -0.30913  -0.525945  0.049464  2.386787  0.068
O  O387  1  0.63984589  0.06382605  0.67580011  1  -1.116563  -0.075738  -0.309189  -0.526062  -0.05  2.386817  -0.068
O  O388  1  0.32138126  0.42062634  0.99028202  1  -1.109728  0.089803  -0.306036  -0.521277  0.057975  2.384335  0.082
O  O389  1  0.82151381  0.07935602  0.00965583  1  -1.107083  0.080204  -0.30565  -0.519908  0.052214  2.386931  0.073
O  O390  1  0.67862626  0.57937050  0.00971906  1  -1.109655  0.089917  -0.306045  -0.521357  0.058037  2.384292  0.082
O  O391  1  0.17848519  0.92064680  0.99034053  1  -1.107407  -0.079618  -0.305689  -0.520037  -0.052426  2.387306  -0.072
O  O392  1  0.46810253  0.39306433  0.93500330  1  -1.100876  0.099731  -0.305398  -0.507139  0.064252  2.346923  0.091
O  O393  1  0.96822470  0.10696453  0.06503035  1  -1.100486  -0.088163  -0.304207  -0.505437  -0.057797  2.35079  -0.08
O  O394  1  0.53190405  0.60692450  0.06499808  1  -1.100703  0.0993  -0.305384  -0.507028  0.06399  2.34686  0.09
O  O395  1  0.03175536  0.89301896  0.93497286  1  -1.100395  0.088815  -0.304379  -0.505653  0.057597  2.350382  0.08
O  O396  1  0.98810482  0.07185493  0.93808004  1  -1.103535  0.092163  -0.306766  -0.504459  0.059714  2.371214  0.083
O  O397  1  0.48814273  0.42807604  0.06185077  1  -1.103043  0.102997  -0.306805  -0.504809  0.06635  2.368331  0.093
O  O398  1  0.01186860  0.92816132  0.06192662  1  -1.103524  -0.091547  -0.306692  -0.504437  -0.059964  2.371374  -0.083
O  O399  1  0.51188941  0.57194621  0.93815476  1  -1.102901  0.103567  -0.306878  -0.505044  0.066711  2.368531  0.094
O  O400  1  0.00977794  0.59756872  0.72974341  1  -1.105575  0.09258  -0.305869  -0.505311  0.060138  2.371717  0.084
O  O401  1  0.50979540  0.90243015  0.27025404  1  -1.105795  -0.092602  -0.305897  -0.50533  -0.060786  2.371964  -0.084
O  O402  1  0.99022295  0.40243078  0.27025562  1  -1.105661  -0.092591  -0.30589  -0.505287  -0.06078  2.371736  -0.084
O  O403  1  0.49020359  0.09756868  0.72974590  1  -1.105661  0.092602  -0.305901  -0.505309  0.060152  2.371948  0.084
O  O404  1  0.17464320  0.58508188  0.65775592  1  -1.105131  0.08067  -0.306201  -0.519118  0.052495  2.385389  0.073
O  O405  1  0.67465205  0.91492118  0.34224258  1  -1.105491  -0.080687  -0.306146  -0.519149  -0.053059  2.385361  -0.073
O  O406  1  0.82536243  0.41491762  0.34224343  1  -1.1051  -0.080675  -0.306145  -0.519053  -0.053053  2.385319  -0.073
O  O407  1  0.32534410  0.08507900  0.65775846  1  -1.105294  0.08069  -0.306202  -0.519254  0.052506  2.385252  0.073
O  O408  1  0.02822204  0.56279521  0.60212585  1  -1.10292  -0.088051  -0.305164  -0.501964  -0.057699  2.353795  -0.08
O  O409  1  0.52821314  0.93720877  0.39787787  1  -1.103025  0.088073  -0.305089  -0.502017  0.057109  2.353366  0.08
O  O410  1  0.97177980  0.43720697  0.39787503  1  -1.103035  0.088037  -0.305128  -0.501974  0.057087  2.353978  0.08
O  O411  1  0.47178302  0.06279074  0.60212344  1  -1.10323  -0.088068  -0.305116  -0.502082  -0.057709  2.353388  -0.08
O  O412  1  0.13613637  0.10856037  0.99237609  1  -1.113752  -0.076759  -0.30917  -0.522023  -0.050462  2.382366  -0.069
O  O413  1  0.63614749  0.39139803  0.00764019  1  -1.113252  0.086474  -0.309776  -0.522891  0.055707  2.379963  0.079
O  O414  1  0.86386831  0.89143844  0.00762157  1  -1.113515  0.077199  -0.309111  -0.522031  0.050175  2.382205  0.07
O  O415  1  0.36385435  0.60860280  0.99235862  1  -1.113155  0.086227  -0.309692  -0.522799  0.055552  2.37992  0.078
O  O416  1  0.67630087  0.25085444  0.67652531  1  -1.105668  -0.081465  -0.306831  -0.518318  -0.053572  2.388002  -0.074
O  O417  1  0.17629342  0.24914985  0.32347404  1  -1.105328  0.081437  -0.30687  -0.518284  0.052996  2.388459  0.074
O  O418  1  0.32369813  0.74914573  0.32347508  1  -1.105672  0.081467  -0.306836  -0.518342  0.053014  2.388003  0.074
O  O419  1  0.82370842  0.75084965  0.67652662  1  -1.105238  -0.081444  -0.306906  -0.51838  -0.053561  2.388589  -0.074
O  O420  1  0.35842804  0.27310541  0.65832750  1  -1.109927  0.076936  -0.309736  -0.524613  0.05011  2.373627  0.069
O  O421  1  0.85843410  0.22689818  0.34167446  1  -1.109702  -0.076929  -0.309771  -0.524576  -0.050636  2.373544  -0.069
O  O422  1  0.64157285  0.72689476  0.34167256  1  -1.109973  -0.076937  -0.309746  -0.524605  -0.050639  2.373714  -0.069
O  O423  1  0.14156584  0.77310132  0.65832489  1  -1.109729  0.076922  -0.309742  -0.524561  0.050102  2.373614  0.069
O  O424  1  0.51099594  0.24203782  0.60514894  1  -1.100774  -0.093525  -0.309501  -0.504115  -0.061242  2.3432  -0.085
O  O425  1  0.01097756  0.25796031  0.39484987  1  -1.100601  0.093493  -0.309621  -0.504119  0.060582  2.343266  0.085
O  O426  1  0.48900211  0.75796034  0.39485063  1  -1.100756  0.093528  -0.309486  -0.504125  0.060604  2.343154  0.085
O  O427  1  0.98901765  0.74204120  0.60515128  1  -1.100576  -0.093512  -0.3096  -0.504103  -0.061233  2.34327  -0.085
O  O428  1  0.52773936  0.27668626  0.73141792  1  -1.102473  0.087339  -0.304495  -0.505512  0.056758  2.353276  0.079
O  O429  1  0.02774765  0.22331772  0.26858700  1  -1.102339  -0.087314  -0.304489  -0.505427  -0.057341  2.353497  -0.079
O  O430  1  0.47226154  0.72331458  0.26858285  1  -1.102508  -0.087334  -0.304519  -0.505544  -0.057354  2.353324  -0.079
O  O431  1  0.97225608  0.77668312  0.73141345  1  -1.102462  0.087321  -0.304536  -0.505503  0.056746  2.353448  0.079
F  F432  1  0.08845359  0.47968360  0.93779834  1  -0.630897  -2.1e-05  -0.08851  -0.129606  -7e-06  1.363572  0.0
F  F433  1  0.58849456  0.02031047  0.06219160  1  -0.63133  -1.8e-05  -0.088515  -0.129665  -7e-06  1.363515  0.0
F  F434  1  0.91154919  0.52031791  0.06220184  1  -0.631039  -5e-06  -0.088535  -0.129638  2e-06  1.363568  0.0
F  F435  1  0.41150918  0.97968637  0.93780916  1  -0.631288  1.4e-05  -0.088517  -0.129641  4e-06  1.363581  0.0
F  F436  1  0.90902609  0.18410331  0.72896918  1  -0.62945  4e-05  -0.088822  -0.129731  2.2e-05  1.356945  0.0
F  F437  1  0.40900835  0.31590238  0.27103768  1  -0.629234  -1.7e-05  -0.08876  -0.129636  -8e-06  1.35725  0.0
F  F438  1  0.09097006  0.81589953  0.27103078  1  -0.629396  -1.1e-05  -0.088786  -0.129719  -4e-06  1.35699  0.0
F  F439  1  0.59099065  0.68409779  0.72896238  1  -0.629208  1.6e-05  -0.088761  -0.129646  7e-06  1.357257  0.0
F  F440  1  0.58719454  0.35979330  0.39707936  1  -0.630013  3.6e-05  -0.087936  -0.131064  1.8e-05  1.356497  0.0
F  F441  1  0.08717251  0.14020217  0.60290946  1  -0.630171  -3.6e-05  -0.087928  -0.131073  -1.8e-05  1.356357  0.0
F  F442  1  0.41280825  0.64020686  0.60291906  1  -0.629957  -3.6e-05  -0.087898  -0.131037  -1.8e-05  1.356513  0.0
F  F443  1  0.91282648  0.85979399  0.39709059  1  -0.63017  3.6e-05  -0.087924  -0.131101  1.8e-05  1.35634  0.0
