# generated using pymatgen
data_Co3H24C42N2O15
_symmetry_space_group_name_H-M   'P 1'
_cell_length_a   10.20878530
_cell_length_b   17.69666422
_cell_length_c   23.14257800
_cell_angle_alpha   89.99836402
_cell_angle_beta   89.99899737
_cell_angle_gamma   90.93662507
_symmetry_Int_Tables_number   1
_chemical_formula_structural   Co3H24C42N2O15
_chemical_formula_sum   'Co12 H96 C168 N8 O60'
_cell_volume   4180.41296278
_cell_formula_units_Z   4
loop_
 _symmetry_equiv_pos_site_id
 _symmetry_equiv_pos_as_xyz
  1  'x, y, z'
loop_
 _atom_site_type_symbol
 _atom_site_label
 _atom_site_symmetry_multiplicity
 _atom_site_fract_x
 _atom_site_fract_y
 _atom_site_fract_z
 _atom_site_occupancy
 _atom_site_pbe_bader_charge
 _atom_site_pbe_bader_spin_density
 _atom_site_pbe_cm5_charge
 _atom_site_pbe_ddec_charge
 _atom_site_pbe_ddec_spin_density
 _atom_site_pbe_ddec_sum_bond_order
 _atom_site_pbe_magmom
Co  Co0  1  0.51262511  0.74507679  0.62634105  1  1.274711  2.603949  0.652764  0.974162  2.790432  2.381389  2.561
Co  Co1  1  0.98739471  0.75493282  0.12637493  1  1.274525  2.603974  0.652773  0.974447  2.790488  2.380657  2.561
Co  Co2  1  0.48738651  0.25492226  0.37365510  1  1.274641  2.604014  0.652832  0.974354  2.790477  2.380942  2.561
Co  Co3  1  0.01260527  0.24507074  0.87362295  1  1.274487  2.603965  0.652808  0.974423  2.790487  2.380694  2.561
Co  Co4  1  0.33379882  0.75102082  0.74021836  1  1.330705  2.608922  0.651075  1.038943  2.827136  2.367158  2.595
Co  Co5  1  0.16622359  0.74899689  0.24025183  1  1.330512  2.608956  0.650973  1.038904  2.827171  2.366965  2.595
Co  Co6  1  0.66620308  0.24898105  0.25976655  1  1.330592  2.609075  0.65114  1.039203  2.827321  2.366991  2.595
Co  Co7  1  0.83378327  0.25100781  0.75975512  1  1.330799  2.608917  0.651069  1.039017  2.827184  2.367154  2.595
Co  Co8  1  0.98327921  0.14822908  0.65022897  1  1.269169  2.594622  0.674926  0.852668  2.819501  2.542269  2.572
Co  Co9  1  0.51671570  0.35177128  0.15023759  1  1.268985  2.59452  0.674941  0.852498  2.819366  2.542252  2.572
Co  Co10  1  0.01671372  0.85176656  0.34978057  1  1.269539  2.59458  0.674954  0.852533  2.819494  2.542824  2.572
Co  Co11  1  0.48327661  0.64823905  0.84975380  1  1.269119  2.594618  0.675029  0.852617  2.819523  2.542388  2.572
H  H12  1  0.66615404  0.96128922  0.65440888  1  0.103225  0.000607  0.10856  0.118467  0.000257  1.026007  0.0
H  H13  1  0.83382992  0.53870176  0.15445383  1  0.103564  0.000607  0.108575  0.118496  0.000257  1.02603  0.0
H  H14  1  0.33385264  0.03870813  0.34560240  1  0.104456  0.000607  0.108526  0.118463  0.000257  1.025959  0.0
H  H15  1  0.16616220  0.46130123  0.84554880  1  0.103648  0.000607  0.108585  0.118521  0.000257  1.026008  0.0
H  H16  1  0.57702689  0.16064389  0.75431259  1  0.180362  -1.2e-05  0.118087  0.150445  -0.000265  1.014955  0.0
H  H17  1  0.92296154  0.33934122  0.25436112  1  0.179701  -1.2e-05  0.118034  0.150292  -0.000265  1.015025  0.0
H  H18  1  0.42296899  0.83935232  0.24569652  1  0.181001  -1.2e-05  0.118063  0.150437  -0.000265  1.014954  0.0
H  H19  1  0.07703155  0.66066120  0.74564194  1  0.179708  -1.2e-05  0.118047  0.150366  -0.000265  1.014933  0.0
H  H20  1  0.28940418  0.98172724  0.73539806  1  0.100027  0.000155  0.110039  0.121649  -4.3e-05  1.013931  0.0
H  H21  1  0.21058615  0.51825275  0.23543534  1  0.099655  0.000155  0.109974  0.12157  -4.3e-05  1.01396  0.0
H  H22  1  0.71059745  0.01826389  0.26460673  1  0.100059  0.000155  0.109986  0.121587  -4.3e-05  1.013847  0.0
H  H23  1  0.78940108  0.48175023  0.76457075  1  0.099508  0.000155  0.109984  0.121561  -4.3e-05  1.013884  0.0
H  H24  1  0.42039644  0.01557889  0.85776824  1  0.099994  8.2e-05  0.105093  0.119931  3.2e-05  1.027638  0.0
H  H25  1  0.07961121  0.48439665  0.35782319  1  0.100243  8.2e-05  0.105089  0.119761  3.2e-05  1.02776  0.0
H  H26  1  0.57959946  0.98441844  0.14223266  1  0.099979  8.2e-05  0.105096  0.119845  3.2e-05  1.027629  0.0
H  H27  1  0.92039469  0.51560862  0.64218549  1  0.099921  8.1e-05  0.105081  0.119728  3.2e-05  1.027794  0.0
H  H28  1  0.27680061  0.95342199  0.93109183  1  0.084194  2.5e-05  0.097685  0.094316  -4e-06  1.034717  0.0
H  H29  1  0.22321799  0.54655007  0.43113401  1  0.0829  2.6e-05  0.09772  0.094339  -4e-06  1.034464  0.0
H  H30  1  0.72319324  0.04657139  0.06890778  1  0.084437  2.6e-05  0.097727  0.094277  -4e-06  1.034767  0.0
H  H31  1  0.77678887  0.45345463  0.56887078  1  0.083001  2.6e-05  0.097719  0.09426  -4e-06  1.034607  0.0
H  H32  1  0.03945311  0.98739969  0.93729869  1  0.079141  0.000179  0.10191  0.10247  4.5e-05  0.996572  0.0
H  H33  1  0.46055420  0.51256138  0.43732724  1  0.078539  0.000179  0.102022  0.102558  4.5e-05  0.996605  0.0
H  H34  1  0.96053673  0.01258973  0.06269962  1  0.079196  0.000179  0.101915  0.102427  4.5e-05  0.996499  0.0
H  H35  1  0.53944565  0.48743709  0.56267625  1  0.078636  0.000179  0.102061  0.102604  4.5e-05  0.996448  0.0
H  H36  1  0.94931999  0.08010350  0.86757339  1  0.084374  0.000728  0.103984  0.097608  0.00037  1.046624  0.0
H  H37  1  0.55068242  0.41987621  0.36759453  1  0.084633  0.000728  0.103933  0.097441  0.00037  1.04664  0.0
H  H38  1  0.05067393  0.91989270  0.13242621  1  0.084162  0.000728  0.103984  0.097672  0.00037  1.046549  0.0
H  H39  1  0.44931764  0.58013074  0.63240508  1  0.084503  0.000728  0.103888  0.097445  0.00037  1.046661  0.0
H  H40  1  0.97376620  0.73878398  0.65277200  1  0.126278  0.000516  0.112795  0.129496  0.000268  0.99787  0.0
H  H41  1  0.52624759  0.76126249  0.15279635  1  0.126006  0.000516  0.112957  0.129559  0.000268  0.997863  0.0
H  H42  1  0.02623560  0.26121393  0.34723106  1  0.126397  0.000516  0.112792  0.129517  0.000268  0.997823  0.0
H  H43  1  0.47375341  0.23874277  0.84720024  1  0.126224  0.000516  0.112961  0.129619  0.000268  0.997957  0.0
H  H44  1  0.21860538  0.65737235  0.51482575  1  0.088529  0.000257  0.1112  0.128788  -1e-05  0.993099  0.0
H  H45  1  0.28142786  0.84264203  0.01483209  1  0.088628  0.000257  0.111271  0.128844  -1e-05  0.993121  0.0
H  H46  1  0.78139954  0.34263291  0.48517559  1  0.088279  0.000258  0.111197  0.128735  -1e-05  0.993228  0.0
H  H47  1  0.71857105  0.15735814  0.98516233  1  0.088889  0.000258  0.111262  0.128872  -1e-05  0.993037  0.0
H  H48  1  0.80049555  0.67223969  0.49059527  1  0.138125  0.00067  0.112407  0.136657  0.000335  0.99447  0.0
H  H49  1  0.69954485  0.82780137  0.99061734  1  0.137182  0.000669  0.112416  0.136815  0.000335  0.994157  0.0
H  H50  1  0.19950941  0.32776726  0.50940693  1  0.138006  0.00067  0.112412  0.136673  0.000335  0.994446  0.0
H  H51  1  0.30045582  0.17219032  0.00937578  1  0.136128  0.00067  0.112433  0.136694  0.000335  0.994295  0.0
H  H52  1  0.87971170  0.51518653  0.48020370  1  0.094354  0.000109  0.105094  0.119183  2.7e-05  1.014431  0.0
H  H53  1  0.62033961  0.98480352  0.98019014  1  0.094176  0.000109  0.104956  0.119105  2.7e-05  1.014605  0.0
H  H54  1  0.12029226  0.48481986  0.51980239  1  0.094366  0.000109  0.105006  0.119074  2.7e-05  1.014553  0.0
H  H55  1  0.37966398  0.01518761  0.01980472  1  0.094028  0.000109  0.104981  0.119168  2.7e-05  1.014656  0.0
H  H56  1  0.72454480  0.44383708  0.41682191  1  0.042761  2.1e-05  0.100085  0.097398  -9.7e-05  1.023469  0.0
H  H57  1  0.77547571  0.05616170  0.91679745  1  0.045102  2e-05  0.100165  0.097512  -9.7e-05  1.023356  0.0
H  H58  1  0.27545921  0.55617100  0.58318202  1  0.042585  2.1e-05  0.100115  0.097449  -9.6e-05  1.023583  0.0
H  H59  1  0.22452318  0.94383734  0.08319956  1  0.044962  2e-05  0.100167  0.097528  -9.7e-05  1.023492  0.0
H  H60  1  0.69927240  0.48041756  0.31310542  1  0.071911  9.4e-05  0.100458  0.104502  -9.3e-05  1.007482  0.0
H  H61  1  0.80069095  0.01959864  0.81307637  1  0.070555  9.4e-05  0.100304  0.10418  -9.3e-05  1.007848  0.0
H  H62  1  0.30073358  0.51959109  0.68689808  1  0.071471  9.4e-05  0.100383  0.104415  -9.3e-05  1.007564  0.0
H  H63  1  0.19932448  0.98039590  0.18692107  1  0.070041  9.4e-05  0.1003  0.104203  -9.3e-05  1.007946  0.0
H  H64  1  0.82393094  0.59133320  0.27437555  1  0.088469  0.000215  0.110483  0.120615  3.3e-05  0.985059  0.0
H  H65  1  0.67598479  0.90870628  0.77435067  1  0.089126  0.000215  0.110556  0.120633  3.3e-05  0.98503  0.0
H  H66  1  0.17607225  0.40868167  0.72563011  1  0.088471  0.000215  0.110441  0.12049  3.3e-05  0.985226  0.0
H  H67  1  0.32402875  0.09129108  0.22564375  1  0.088953  0.000215  0.110547  0.120602  3.3e-05  0.984942  0.0
H  H68  1  0.27632827  0.09797312  0.64848655  1  0.112146  0.002026  0.118991  0.092701  0.000472  1.014892  0.002
H  H69  1  0.22365687  0.40202330  0.14848816  1  0.112032  0.002026  0.118958  0.09267  0.000472  1.014813  0.002
H  H70  1  0.72368023  0.90201858  0.35151219  1  0.11213  0.002027  0.118961  0.092628  0.000472  1.015028  0.002
H  H71  1  0.77632149  0.59797740  0.85149805  1  0.111761  0.002025  0.118972  0.092604  0.000472  1.015162  0.002
H  H72  1  0.43327105  0.05829657  0.57159131  1  0.082479  0.001065  0.105813  0.108989  0.000476  1.010121  0.0
H  H73  1  0.06672113  0.44170278  0.07158809  1  0.082457  0.001065  0.105818  0.108959  0.000476  1.010042  0.0
H  H74  1  0.56672677  0.94169908  0.42840570  1  0.082386  0.001066  0.1058  0.10895  0.000476  1.010164  0.0
H  H75  1  0.93326902  0.55829964  0.92839294  1  0.082339  0.001066  0.105799  0.108903  0.000476  1.010002  0.0
H  H76  1  0.35345446  0.04667702  0.46880458  1  0.073122  -0.000107  0.112677  0.115897  -0.000238  0.982752  0.0
H  H77  1  0.14655308  0.45331411  0.96880100  1  0.073095  -0.000107  0.112644  0.115888  -0.000238  0.982725  0.0
H  H78  1  0.64654534  0.95331920  0.53119416  1  0.073169  -0.000107  0.11269  0.11591  -0.000238  0.98274  0.0
H  H79  1  0.85344892  0.54669228  0.03118477  1  0.073553  -0.000107  0.112659  0.115895  -0.000238  0.982532  0.0
H  H80  1  0.15923333  0.05178442  0.39910215  1  0.118375  0.000447  0.109113  0.124292  0.000143  1.016159  0.0
H  H81  1  0.34076669  0.44818616  0.89909848  1  0.118548  0.000447  0.109145  0.124346  0.000143  1.016199  0.0
H  H82  1  0.84076145  0.94820670  0.60089961  1  0.118543  0.000446  0.109111  0.12439  0.000142  1.016104  0.0
H  H83  1  0.65924225  0.55182306  0.10089162  1  0.118822  0.000446  0.109107  0.124244  0.000143  1.01601  0.0
H  H84  1  0.92855661  0.08271197  0.38182505  1  0.107547  0.000424  0.11329  0.124301  0.000163  0.969418  0.0
H  H85  1  0.57144686  0.41725420  0.88182371  1  0.107599  0.000424  0.113217  0.124189  0.000163  0.969509  0.0
H  H86  1  0.07144211  0.91728028  0.61817628  1  0.107432  0.000424  0.113315  0.12427  0.000163  0.969403  0.0
H  H87  1  0.42855717  0.58275501  0.11816769  1  0.107354  0.000424  0.113239  0.124096  0.000163  0.969475  0.0
H  H88  1  0.71213419  0.13168997  0.42061015  1  0.119222  -0.000139  0.108619  0.113328  -0.000375  1.024356  0.0
H  H89  1  0.78785607  0.36827981  0.92061121  1  0.119325  -0.000139  0.108628  0.113397  -0.000376  1.024164  0.0
H  H90  1  0.28786071  0.86830624  0.57938989  1  0.119221  -0.000139  0.108656  0.113402  -0.000375  1.024241  0.0
H  H91  1  0.21214490  0.63172432  0.07938234  1  0.118944  -0.000139  0.108712  0.113558  -0.000375  1.024088  0.0
H  H92  1  0.58655786  0.18164697  0.50483191  1  0.096909  0.001395  0.11513  0.123441  0.000657  0.985245  0.001
H  H93  1  0.91343444  0.31833119  0.00483819  1  0.096527  0.001396  0.115109  0.123473  0.000657  0.985101  0.001
H  H94  1  0.41344591  0.81835151  0.49516683  1  0.096826  0.001396  0.115143  0.12352  0.000657  0.98516  0.001
H  H95  1  0.08656657  0.68167463  0.99515278  1  0.096071  0.001396  0.115101  0.123522  0.000657  0.985108  0.001
H  H96  1  0.69824555  0.19232034  0.60134697  1  0.097037  0.001985  0.121179  0.094792  0.000482  0.979619  0.001
H  H97  1  0.80175431  0.30768301  0.10135694  1  0.096534  0.001986  0.121246  0.094924  0.000482  0.979581  0.001
H  H98  1  0.30174937  0.80767644  0.39865221  1  0.097029  0.001986  0.121182  0.0948  0.000482  0.979555  0.001
H  H99  1  0.19824477  0.69232394  0.89863316  1  0.096488  0.001987  0.121314  0.095039  0.000482  0.979452  0.001
H  H100  1  0.18984305  0.83806326  0.80872719  1  0.614711  0.000265  0.323896  0.401567  1.9e-05  0.87756  0.0
H  H101  1  0.31017201  0.66196541  0.30876057  1  0.614138  0.000268  0.323889  0.40174  2e-05  0.877399  0.0
H  H102  1  0.81015076  0.16192843  0.19127501  1  0.614586  0.000264  0.323852  0.401535  1.8e-05  0.877596  0.0
H  H103  1  0.68982494  0.33803475  0.69125200  1  0.614312  0.000267  0.323772  0.401533  2e-05  0.8778  0.0
H  H104  1  0.18424405  0.85438979  0.74320409  1  0.630443  -0.00053  0.309866  0.398858  -0.000502  0.913037  0.0
H  H105  1  0.31577118  0.64561932  0.24324037  1  0.63121  -0.00053  0.309915  0.39899  -0.000502  0.912966  0.0
H  H106  1  0.81573537  0.14561431  0.25680114  1  0.63038  -0.000531  0.30985  0.398851  -0.000502  0.913078  0.0
H  H107  1  0.68423769  0.35438708  0.75677133  1  0.630914  -0.00053  0.309936  0.399151  -0.000502  0.912735  0.0
C  C108  1  0.43478733  0.88766475  0.66978008  1  1.550933  0.002426  0.213676  0.585504  0.001717  4.181473  0.002
C  C109  1  0.06519920  0.61233353  0.16982853  1  1.550713  0.002426  0.213412  0.584911  0.00171  4.182345  0.002
C  C110  1  0.56523689  0.11232866  0.33022471  1  1.550594  0.002426  0.213735  0.585272  0.00172  4.181349  0.002
C  C111  1  0.93479681  0.38766833  0.83017496  1  1.550188  0.002428  0.213476  0.585238  0.001711  4.181929  0.002
C  C112  1  0.47233552  0.96480597  0.69075904  1  -0.001088  0.007909  -0.017549  -0.017373  0.00393  4.005631  0.006
C  C113  1  0.02765011  0.53518983  0.19080168  1  -0.001641  0.007908  -0.017825  -0.018043  0.00393  4.00611  0.006
C  C114  1  0.52767099  0.03518460  0.30925137  1  -0.000685  0.007909  -0.017705  -0.017595  0.00393  4.006026  0.006
C  C115  1  0.97234008  0.46481429  0.80920268  1  -0.001387  0.00791  -0.01786  -0.018141  0.003931  4.00587  0.006
C  C116  1  0.59760128  0.99438427  0.67944057  1  0.002686  0.000671  -0.083735  -0.135333  0.0  3.944117  0.0
C  C117  1  0.90238367  0.50560803  0.17948787  1  0.005058  0.000669  -0.08374  -0.135176  -2e-06  3.943958  0.0
C  C118  1  0.40240621  0.00560630  0.32057373  1  0.00091  0.000672  -0.083792  -0.135561  1e-06  3.944441  0.0
C  C119  1  0.09760849  0.49439665  0.82051822  1  0.004831  0.000667  -0.083756  -0.135178  -3e-06  3.943749  0.0
C  C120  1  0.63545834  0.06483877  0.70212605  1  -0.06623  0.003727  -0.019019  -0.025085  0.001834  4.023378  0.003
C  C121  1  0.86453996  0.43514437  0.20216430  1  -0.067324  0.003734  -0.019092  -0.025295  0.001837  4.023498  0.003
C  C122  1  0.36455113  0.93515237  0.29788955  1  -0.065882  0.003724  -0.018872  -0.024871  0.001832  4.023466  0.003
C  C123  1  0.13545809  0.56486032  0.79784135  1  -0.066864  0.003728  -0.019146  -0.025433  0.001834  4.023598  0.003
C  C124  1  0.76983728  0.09443427  0.69090476  1  1.515647  -0.000354  0.20823  0.568604  -0.002485  4.158742  0.001
C  C125  1  0.73017864  0.40553067  0.19093087  1  1.516087  -0.000375  0.2085  0.568858  -0.002491  4.158267  0.001
C  C126  1  0.23017522  0.90556083  0.30911775  1  1.515882  -0.000357  0.208436  0.568999  -0.002486  4.158301  0.001
C  C127  1  0.26983179  0.59445991  0.80908040  1  1.516392  -0.000374  0.208339  0.568717  -0.002492  4.158945  0.001
C  C128  1  0.54829921  0.10637577  0.73573498  1  -0.051364  -0.000953  -0.07966  -0.183548  -0.001358  3.882514  -0.001
C  C129  1  0.95169283  0.39360665  0.23577995  1  -0.050006  -0.000958  -0.079535  -0.183125  -0.001363  3.882724  -0.001
C  C130  1  0.45170144  0.89361535  0.26427673  1  -0.051994  -0.000953  -0.079811  -0.183646  -0.001358  3.882523  -0.001
C  C131  1  0.04830321  0.60639634  0.76422701  1  -0.051267  -0.00096  -0.079535  -0.183099  -0.001366  3.882692  -0.001
C  C132  1  0.42531412  0.07509195  0.74782088  1  0.462535  0.001156  0.088924  0.257559  0.000557  4.058259  0.001
C  C133  1  0.07467272  0.42489507  0.24786419  1  0.463162  0.001158  0.089082  0.257629  0.000558  4.058225  0.001
C  C134  1  0.57468459  0.92489974  0.25218823  1  0.462541  0.001156  0.08893  0.257488  0.000557  4.058439  0.001
C  C135  1  0.92531845  0.57510904  0.75214406  1  0.463516  0.001157  0.089039  0.257455  0.000558  4.058371  0.001
C  C136  1  0.38609964  0.00505634  0.72556239  1  -0.02159  -0.000863  -0.086086  -0.204377  -0.001342  3.962201  -0.001
C  C137  1  0.11388319  0.49493095  0.22560344  1  -0.023037  -0.000867  -0.085726  -0.203672  -0.001346  3.961788  -0.001
C  C138  1  0.61390192  0.99493196  0.27444672  1  -0.021772  -0.000863  -0.085927  -0.204072  -0.001343  3.962185  -0.001
C  C139  1  0.88610698  0.50507203  0.77440265  1  -0.022456  -0.00087  -0.085719  -0.203579  -0.001349  3.961594  -0.001
C  C140  1  0.26304222  0.07804616  0.81990420  1  0.432586  0.001046  0.090554  0.242008  0.00015  4.022327  0.0
C  C141  1  0.23694867  0.42194323  0.31994113  1  0.433772  0.001049  0.0904  0.241484  0.000152  4.022501  0.0
C  C142  1  0.73694686  0.92195230  0.18010060  1  0.431919  0.001046  0.090459  0.241853  0.00015  4.02255  0.0
C  C143  1  0.76305055  0.57806937  0.68006063  1  0.433273  0.001048  0.090566  0.241668  0.000151  4.022114  0.0
C  C144  1  0.31609674  0.02751900  0.85948570  1  -0.008007  0.001593  -0.099324  -0.195596  0.00077  3.980383  0.001
C  C145  1  0.18390294  0.47245364  0.35953275  1  -0.00804  0.001594  -0.099221  -0.195144  0.000771  3.980088  0.001
C  C146  1  0.68389903  0.97247269  0.14051521  1  -0.008066  0.001594  -0.099358  -0.19554  0.00077  3.980296  0.001
C  C147  1  0.81610008  0.52755444  0.64047204  1  -0.007616  0.001596  -0.099255  -0.195125  0.000772  3.979803  0.001
C  C148  1  0.23501110  0.99385921  0.90103224  1  -0.051304  0.002209  -0.092144  -0.063063  0.001107  4.013475  0.001
C  C149  1  0.26498915  0.50611452  0.40107498  1  -0.051258  0.002213  -0.092032  -0.062856  0.001109  4.013266  0.001
C  C150  1  0.76498071  0.00613078  0.09896693  1  -0.051246  0.002209  -0.092102  -0.062893  0.001107  4.013269  0.001
C  C151  1  0.73501094  0.49389356  0.59893025  1  -0.051094  0.002212  -0.092002  -0.062837  0.001109  4.01332  0.001
C  C152  1  0.10272863  0.01268234  0.90437235  1  -0.07005  0.00085  -0.097469  -0.094287  0.000277  4.017829  0.0
C  C153  1  0.39727117  0.48728804  0.40440446  1  -0.068422  0.000851  -0.097799  -0.09489  0.000277  4.018242  0.0
C  C154  1  0.89726219  0.98730708  0.09562683  1  -0.069134  0.00085  -0.097459  -0.094178  0.000277  4.017689  0.0
C  C155  1  0.60272503  0.51272117  0.59559860  1  -0.06886  0.000852  -0.097783  -0.094801  0.000278  4.018083  0.0
C  C156  1  0.05165519  0.06422586  0.86522380  1  -0.060664  0.003969  -0.086126  -0.093344  0.002287  4.011004  0.002
C  C157  1  0.44834253  0.43575617  0.36525102  1  -0.061877  0.003972  -0.085961  -0.092797  0.002289  4.010801  0.002
C  C158  1  0.94833670  0.93576752  0.13477711  1  -0.06123  0.003969  -0.086218  -0.093596  0.002288  4.011246  0.002
C  C159  1  0.55165973  0.56426039  0.63475075  1  -0.063372  0.003971  -0.086011  -0.093024  0.00229  4.011054  0.002
C  C160  1  0.13008811  0.09567362  0.82138664  1  0.026858  0.011148  -0.023825  -0.152057  0.005593  3.992278  0.009
C  C161  1  0.36990373  0.40431685  0.32141385  1  0.026878  0.011147  -0.023789  -0.151821  0.005592  3.991929  0.009
C  C162  1  0.86990287  0.90432259  0.17861686  1  0.026797  0.011149  -0.023779  -0.151946  0.005593  3.992149  0.009
C  C163  1  0.63009751  0.59569802  0.67858705  1  0.029178  0.01115  -0.023956  -0.151961  0.005594  3.992314  0.009
C  C164  1  0.06915149  0.14361387  0.77600463  1  1.553992  -0.007594  0.238658  0.652679  -0.009332  4.071737  -0.005
C  C165  1  0.43083649  0.35638508  0.27601859  1  1.555035  -0.007587  0.238226  0.651774  -0.009318  4.073191  -0.005
C  C166  1  0.93084249  0.85638459  0.22400146  1  1.554092  -0.007585  0.238671  0.652727  -0.009321  4.071538  -0.005
C  C167  1  0.56917467  0.64363488  0.72397324  1  1.555276  -0.007585  0.238153  0.652033  -0.009324  4.07238  -0.005
C  C168  1  0.74446419  0.72999406  0.59627107  1  1.533002  -0.002665  0.191915  0.541367  -0.003998  4.211337  -0.005
C  C169  1  0.75555978  0.77005625  0.09629993  1  1.532486  -0.002668  0.192087  0.541537  -0.004002  4.211103  -0.005
C  C170  1  0.25554056  0.27000442  0.40372983  1  1.532657  -0.002669  0.191804  0.541197  -0.004001  4.211371  -0.005
C  C171  1  0.24444006  0.22994165  0.90369406  1  1.532494  -0.002663  0.191872  0.541133  -0.004001  4.211287  -0.005
C  C172  1  0.87545984  0.70910030  0.57336150  1  0.025253  0.002267  -0.015186  -0.002393  0.00116  3.988463  0.001
C  C173  1  0.62457289  0.79095032  0.07338444  1  0.024815  0.002269  -0.015196  -0.002087  0.00116  3.987706  0.001
C  C174  1  0.12454798  0.29090327  0.42664156  1  0.025015  0.002269  -0.015213  -0.002323  0.00116  3.988346  0.001
C  C175  1  0.37542884  0.20904477  0.92660782  1  0.025214  0.002269  -0.014975  -0.001714  0.00116  3.987618  0.001
C  C176  1  0.98547381  0.71734205  0.60906055  1  -0.045976  0.001107  -0.080292  -0.123853  0.000474  3.920432  0.001
C  C177  1  0.51454749  0.78269986  0.10908020  1  -0.045959  0.00111  -0.080547  -0.124309  0.000476  3.920309  0.001
C  C178  1  0.01453493  0.28265926  0.39094208  1  -0.046023  0.001104  -0.080223  -0.123856  0.000471  3.920295  0.001
C  C179  1  0.48545242  0.21730087  0.89091379  1  -0.046028  0.00111  -0.080592  -0.124533  0.000476  3.920741  0.001
C  C180  1  0.10905987  0.69855301  0.58793512  1  -0.044158  0.009716  -0.019371  -0.022031  0.004889  4.007922  0.008
C  C181  1  0.39095512  0.80147441  0.08794972  1  -0.042628  0.009716  -0.019312  -0.021712  0.004889  4.007444  0.008
C  C182  1  0.89094692  0.30144887  0.41206621  1  -0.043921  0.00972  -0.019397  -0.022095  0.004891  4.007775  0.008
C  C183  1  0.60904094  0.19852915  0.91204686  1  -0.043178  0.009718  -0.019258  -0.021523  0.004889  4.007346  0.008
C  C184  1  0.22868476  0.70857467  0.62445641  1  1.556785  -0.000825  0.222173  0.595968  -0.001326  4.152792  -0.001
C  C185  1  0.27132542  0.79143554  0.12447518  1  1.558085  -0.00082  0.22263  0.596761  -0.001322  4.152263  -0.001
C  C186  1  0.77131997  0.29142268  0.37554406  1  1.556852  -0.000832  0.22225  0.596255  -0.001333  4.152466  -0.001
C  C187  1  0.72866878  0.20857197  0.87552313  1  1.557938  -0.000823  0.222626  0.596705  -0.001325  4.151941  -0.001
C  C188  1  0.12214461  0.67070613  0.53176186  1  0.040683  -0.001327  -0.092925  -0.209608  -0.001922  3.966825  -0.001
C  C189  1  0.37787925  0.82931269  0.03177250  1  0.01784  -0.001329  -0.092968  -0.209837  -0.001922  3.967078  -0.001
C  C190  1  0.87785939  0.32930196  0.46823732  1  0.040743  -0.001329  -0.092895  -0.209603  -0.001924  3.966948  -0.001
C  C191  1  0.62211856  0.17068239  0.96822063  1  0.017274  -0.00133  -0.092974  -0.209868  -0.001922  3.967106  -0.001
C  C192  1  0.01111813  0.65940456  0.49768237  1  0.390753  0.001062  0.083113  0.259151  0.000446  4.060473  0.001
C  C193  1  0.48891386  0.84062208  0.99769502  1  0.412083  0.001064  0.083124  0.2592  0.000446  4.059964  0.001
C  C194  1  0.98888793  0.34060749  0.50231724  1  0.391145  0.001062  0.083075  0.259292  0.000446  4.060437  0.001
C  C195  1  0.51108780  0.15937018  0.00229681  1  0.412717  0.001064  0.083189  0.25934  0.000446  4.06015  0.001
C  C196  1  0.88731239  0.67945981  0.51749462  1  -0.053169  3.1e-05  -0.088144  -0.204534  -0.000351  3.918566  0.0
C  C197  1  0.61272131  0.82057993  0.01751398  1  -0.051131  3.1e-05  -0.088211  -0.204853  -0.000351  3.917805  0.0
C  C198  1  0.11269359  0.32054884  0.48250671  1  -0.052902  2.7e-05  -0.088154  -0.204617  -0.000355  3.918504  0.0
C  C199  1  0.38728031  0.17941064  0.98247741  1  -0.050026  3e-05  -0.088417  -0.205033  -0.000351  3.917861  0.0
C  C200  1  0.93462415  0.59376371  0.41285232  1  0.424519  0.0023  0.08548  0.228302  0.001102  4.034051  0.001
C  C201  1  0.56536469  0.90624576  0.91284088  1  0.424737  0.002297  0.085454  0.228301  0.0011  4.033531  0.001
C  C202  1  0.06536533  0.40625114  0.58715334  1  0.42432  0.002298  0.085329  0.228216  0.0011  4.034016  0.001
C  C203  1  0.43463112  0.09374762  0.08714878  1  0.424385  0.002294  0.085361  0.228551  0.001098  4.03383  0.001
C  C204  1  0.86519793  0.53201395  0.43538446  1  -0.006591  -0.000388  -0.101284  -0.203607  -0.000473  4.00764  0.0
C  C205  1  0.63482222  0.96799076  0.93536509  1  -0.006956  -0.000386  -0.101184  -0.203692  -0.00047  4.007571  0.0
C  C206  1  0.13480035  0.46800035  0.56462466  1  -0.006256  -0.000387  -0.101085  -0.203375  -0.000472  4.007289  0.0
C  C207  1  0.36518136  0.03199981  0.06462803  1  -0.006124  -0.000384  -0.101187  -0.203759  -0.000468  4.00768  0.0
C  C208  1  0.77896703  0.49212317  0.39935769  1  -0.016499  0.00255  -0.09204  -0.066505  0.001262  4.02538  0.002
C  C209  1  0.72104354  0.00788135  0.89933081  1  -0.017839  0.002543  -0.092135  -0.066713  0.001258  4.025638  0.002
C  C210  1  0.22103710  0.50789000  0.60065142  1  -0.016175  0.002546  -0.092127  -0.066667  0.00126  4.025507  0.002
C  C211  1  0.27896398  0.99211035  0.10066361  1  -0.01859  0.002537  -0.092134  -0.066702  0.001255  4.02593  0.002
C  C212  1  0.76483554  0.51250489  0.34137133  1  -0.114659  -0.000164  -0.097387  -0.099384  -0.000355  4.021286  0.0
C  C213  1  0.73512794  0.98751291  0.84134083  1  -0.114127  -0.000161  -0.097153  -0.098658  -0.000352  4.021714  0.0
C  C214  1  0.23516270  0.48750771  0.65863735  1  -0.11505  -0.000163  -0.097366  -0.099327  -0.000354  4.021476  0.0
C  C215  1  0.26488061  0.01248049  0.15865230  1  -0.113188  -0.00016  -0.097218  -0.09884  -0.00035  4.021983  0.0
C  C216  1  0.83480701  0.57436045  0.31934993  1  0.042459  0.002435  -0.080242  -0.077408  0.001149  3.968841  0.001
C  C217  1  0.66511950  0.92567226  0.81932478  1  0.040884  0.00243  -0.080364  -0.077722  0.001147  3.968843  0.001
C  C218  1  0.16518352  0.42565723  0.68065745  1  0.042556  0.002432  -0.080241  -0.077239  0.001148  3.968659  0.001
C  C219  1  0.33488327  0.07432565  0.18066619  1  0.041661  0.002425  -0.080284  -0.077455  0.001144  3.968501  0.001
C  C220  1  0.91833370  0.61630150  0.35538836  1  -0.03376  0.009318  -0.019761  -0.124047  0.004808  3.965914  0.008
C  C221  1  0.58162537  0.88371915  0.85537167  1  -0.032492  0.009326  -0.019686  -0.123812  0.004812  3.965471  0.008
C  C222  1  0.08165865  0.38371053  0.64461860  1  -0.033011  0.009321  -0.019665  -0.124009  0.00481  3.965584  0.008
C  C223  1  0.41837650  0.11628158  0.14461713  1  -0.033131  0.00933  -0.019635  -0.124206  0.004815  3.965953  0.008
C  C224  1  0.98707142  0.68640531  0.33471763  1  1.601572  -0.007583  0.227747  0.633047  -0.009236  4.14667  -0.005
C  C225  1  0.51289061  0.81362291  0.83468788  1  1.600802  -0.007574  0.227815  0.632748  -0.009223  4.1475  -0.005
C  C226  1  0.01292186  0.31360503  0.66529796  1  1.600083  -0.007588  0.227819  0.632884  -0.009241  4.147039  -0.005
C  C227  1  0.48710658  0.18638686  0.16529703  1  1.600952  -0.007559  0.227768  0.632799  -0.009201  4.147213  -0.005
C  C228  1  0.24516818  0.09284090  0.60361273  1  0.500992  -0.009463  0.059682  0.111368  -0.010209  3.916151  -0.005
C  C229  1  0.25482644  0.40714989  0.10361183  1  0.501005  -0.009479  0.059657  0.111261  -0.010225  3.91621  -0.006
C  C230  1  0.75483629  0.90714628  0.39638731  1  0.500862  -0.009466  0.059583  0.111246  -0.010212  3.916481  -0.005
C  C231  1  0.74516171  0.59285083  0.89637093  1  0.501889  -0.009463  0.059517  0.111244  -0.010211  3.916437  -0.005
C  C232  1  0.33228714  0.07050618  0.56002890  1  -0.026982  0.005309  -0.084626  -0.132163  0.002285  3.989744  0.005
C  C233  1  0.16770929  0.42948796  0.06002646  1  -0.026905  0.005313  -0.084618  -0.132009  0.002286  3.98955  0.005
C  C234  1  0.66771152  0.92948382  0.43996941  1  -0.026837  0.005312  -0.084557  -0.132027  0.002285  3.989423  0.005
C  C235  1  0.83227991  0.57051559  0.93995500  1  -0.02745  0.005307  -0.084482  -0.131848  0.002283  3.989486  0.005
C  C236  1  0.28812574  0.06373800  0.50360890  1  -0.014196  -0.013293  -0.05957  -0.070313  -0.014584  3.916132  -0.008
C  C237  1  0.21187477  0.43625092  0.00360510  1  -0.014385  -0.013312  -0.059608  -0.07045  -0.014606  3.916445  -0.008
C  C238  1  0.71187189  0.93624973  0.49639157  1  -0.01428  -0.013296  -0.059572  -0.07033  -0.014588  3.91613  -0.008
C  C239  1  0.78812129  0.56375263  0.99637593  1  -0.014079  -0.013296  -0.059737  -0.070604  -0.014587  3.915994  -0.008
C  C240  1  0.15606771  0.07978788  0.49085698  1  0.035281  0.003372  0.003196  0.05012  0.001473  3.99798  0.003
C  C241  1  0.34392795  0.42019392  0.99085303  1  0.036058  0.003374  0.003182  0.050107  0.001473  3.998067  0.003
C  C242  1  0.84392686  0.92019476  0.50914522  1  0.035928  0.003372  0.003044  0.049863  0.001472  3.998208  0.003
C  C243  1  0.65606431  0.57981472  0.00913016  1  0.035247  0.003371  0.003207  0.050148  0.001472  3.997376  0.003
C  C244  1  0.09923713  0.07247411  0.43444870  1  -0.053311  0.000582  -0.075206  -0.105607  0.000211  3.937543  0.0
C  C245  1  0.40075968  0.42750304  0.93444458  1  -0.054131  0.000582  -0.075231  -0.105696  0.000211  3.937753  0.0
C  C246  1  0.90075657  0.92751306  0.56555350  1  -0.053393  0.000582  -0.07523  -0.105747  0.000211  3.937702  0.0
C  C247  1  0.59924035  0.57250278  0.06554206  1  -0.053272  0.000583  -0.0752  -0.105638  0.000212  3.937716  0.0
C  C248  1  0.97081214  0.08912364  0.42485201  1  -0.013628  0.00123  -0.075948  -0.105467  0.000612  3.955625  0.001
C  C249  1  0.52918191  0.41084768  0.92484853  1  -0.013241  0.001232  -0.075758  -0.105152  0.000613  3.955713  0.001
C  C250  1  0.02918057  0.91086352  0.57515019  1  -0.013435  0.00123  -0.075829  -0.10522  0.000612  3.95551  0.001
C  C251  1  0.47081915  0.58915984  0.07513941  1  -0.013361  0.001229  -0.075761  -0.104954  0.000612  3.955559  0.001
C  C252  1  0.88917918  0.11595414  0.47054443  1  -0.025426  0.002463  0.001243  0.042711  0.00112  4.015069  0.002
C  C253  1  0.61081320  0.38402336  0.97054221  1  -0.026219  0.002465  0.001029  0.042306  0.00112  4.015294  0.002
C  C254  1  0.11081152  0.88403075  0.52945777  1  -0.026796  0.002466  0.001064  0.042385  0.00112  4.015156  0.002
C  C255  1  0.38918785  0.61598416  0.02944357  1  -0.026182  0.002468  0.001098  0.042161  0.001121  4.015079  0.002
C  C256  1  0.75712018  0.13608249  0.46317087  1  -0.039852  -0.008805  -0.061714  -0.06841  -0.009701  3.919497  -0.005
C  C257  1  0.74287539  0.36389303  0.96317065  1  -0.039199  -0.008818  -0.061619  -0.068283  -0.009714  3.919072  -0.005
C  C258  1  0.24287560  0.86390976  0.53683090  1  -0.039618  -0.00881  -0.061687  -0.068344  -0.009707  3.91922  -0.005
C  C259  1  0.25712271  0.63611392  0.03681902  1  -0.038787  -0.00882  -0.061881  -0.068564  -0.009717  3.919141  -0.005
C  C260  1  0.68753622  0.16361433  0.50980653  1  0.008543  0.005186  -0.080582  -0.125793  0.002515  3.978838  0.004
C  C261  1  0.81245593  0.33636590  0.00981276  1  0.008258  0.005189  -0.080589  -0.125895  0.002516  3.978664  0.004
C  C262  1  0.31246153  0.83637849  0.49019308  1  0.008787  0.00519  -0.080634  -0.126002  0.002517  3.978673  0.004
C  C263  1  0.18754216  0.66364048  0.99017518  1  0.008673  0.00519  -0.080418  -0.125782  0.002517  3.978511  0.004
C  C264  1  0.74967682  0.17032171  0.56375007  1  0.463792  -0.006073  0.054441  0.100166  -0.006672  3.939209  -0.003
C  C265  1  0.75031652  0.32967457  0.06375780  1  0.464502  -0.006079  0.054458  0.100019  -0.006679  3.939254  -0.003
C  C266  1  0.25031408  0.82967110  0.43625040  1  0.46384  -0.006075  0.054486  0.10013  -0.006674  3.939081  -0.003
C  C267  1  0.24968459  0.67033521  0.93623230  1  0.463935  -0.006079  0.054376  0.099855  -0.00668  3.939163  -0.003
C  C268  1  0.94304425  0.12392989  0.52677642  1  0.495314  -0.003877  0.121262  0.124901  -0.005167  3.976295  -0.002
C  C269  1  0.55695319  0.37605367  0.02677599  1  0.495891  -0.003879  0.121179  0.124752  -0.005171  3.976104  -0.002
C  C270  1  0.05694737  0.87605219  0.47322794  1  0.496252  -0.003879  0.121344  0.12491  -0.005169  3.976359  -0.002
C  C271  1  0.44304981  0.62395329  0.97321065  1  0.496297  -0.003878  0.121353  0.125063  -0.005173  3.976106  -0.002
C  C272  1  0.07628476  0.10372892  0.53737302  1  0.465738  -0.006076  0.121033  0.125104  -0.007523  3.969421  -0.004
C  C273  1  0.42370739  0.39625364  0.03737148  1  0.465041  -0.006086  0.121027  0.125213  -0.007534  3.968944  -0.004
C  C274  1  0.92370973  0.89625090  0.46263004  1  0.464936  -0.006078  0.121063  0.125298  -0.007526  3.969254  -0.004
C  C275  1  0.57628478  0.60375104  0.96261084  1  0.463963  -0.006078  0.12102  0.125063  -0.007523  3.969019  -0.004
N  N276  1  0.12020083  0.10888051  0.59282081  1  -1.218345  0.059944  -0.320046  -0.266034  0.03191  3.575955  0.051
N  N277  1  0.37979510  0.39110617  0.09282318  1  -1.218473  0.059944  -0.319911  -0.266017  0.031909  3.575899  0.051
N  N278  1  0.87980065  0.89110440  0.40717966  1  -1.21838  0.059951  -0.319947  -0.265845  0.031915  3.576238  0.051
N  N279  1  0.62019514  0.60889964  0.90716217  1  -1.218526  0.059943  -0.319909  -0.265823  0.031907  3.57595  0.051
N  N280  1  0.87377435  0.15056697  0.57223936  1  -1.204034  0.060724  -0.31641  -0.264363  0.032029  3.564545  0.053
N  N281  1  0.62621865  0.34942955  0.07224675  1  -1.203716  0.060736  -0.316405  -0.264041  0.032038  3.564315  0.053
N  N282  1  0.12621440  0.84941849  0.42776284  1  -1.203984  0.060754  -0.316491  -0.264141  0.032042  3.564429  0.053
N  N283  1  0.37378052  0.65058135  0.92774378  1  -1.203024  0.060732  -0.316561  -0.264216  0.03204  3.564667  0.053
O  O284  1  0.51489527  0.85609628  0.63517204  1  -1.140999  0.0847  -0.311184  -0.551578  0.042609  2.370144  0.069
O  O285  1  0.98507221  0.64391067  0.13523644  1  -1.14114  0.084669  -0.311032  -0.551367  0.042591  2.370429  0.069
O  O286  1  0.48514277  0.14390168  0.36483837  1  -1.140833  0.084695  -0.311181  -0.551416  0.042603  2.369872  0.069
O  O287  1  0.01492775  0.35609233  0.86476619  1  -1.1407  0.08468  -0.311086  -0.551459  0.042594  2.370302  0.069
O  O288  1  0.32912934  0.85637905  0.68795771  1  -1.189506  0.048207  -0.318889  -0.609504  0.025206  2.333217  0.039
O  O289  1  0.17087692  0.64361461  0.18799171  1  -1.189379  0.0482  -0.31891  -0.609257  0.025195  2.333092  0.039
O  O290  1  0.67088305  0.14361152  0.31203541  1  -1.189636  0.048188  -0.318923  -0.609385  0.025196  2.3332  0.039
O  O291  1  0.82912300  0.35638668  0.81201092  1  -1.189318  0.048214  -0.318938  -0.60946  0.025203  2.333133  0.039
O  O292  1  0.85430496  0.05283998  0.66714911  1  -1.131045  0.078208  -0.296768  -0.514811  0.040425  2.218716  0.066
O  O293  1  0.64570088  0.44711454  0.16716244  1  -1.131946  0.078267  -0.296764  -0.514737  0.04045  2.218444  0.066
O  O294  1  0.14570155  0.94715059  0.33287081  1  -1.131845  0.078218  -0.296881  -0.515109  0.04043  2.218672  0.066
O  O295  1  0.35428487  0.55286809  0.83285229  1  -1.13228  0.07824  -0.296665  -0.514697  0.040439  2.21897  0.066
O  O296  1  0.79989338  0.16455795  0.70161963  1  -1.172366  0.104505  -0.319134  -0.612762  0.055779  2.479955  0.09
O  O297  1  0.70014457  0.33540379  0.20164145  1  -1.171448  0.10455  -0.319374  -0.613081  0.055807  2.480299  0.09
O  O298  1  0.20010348  0.83543826  0.29840850  1  -1.171726  0.104477  -0.319168  -0.612823  0.055774  2.479797  0.09
O  O299  1  0.29990293  0.66458005  0.79836161  1  -1.171664  0.104489  -0.319245  -0.612913  0.055776  2.480149  0.09
O  O300  1  0.34204871  0.11710861  0.78125004  1  -1.101905  0.00082  -0.144393  -0.196411  0.000275  2.57215  0.001
O  O301  1  0.15793283  0.38287657  0.28129664  1  -1.102383  0.00082  -0.144534  -0.196511  0.000274  2.572138  0.001
O  O302  1  0.65794231  0.88288929  0.21875346  1  -1.101348  0.00082  -0.144229  -0.196228  0.000275  2.572433  0.001
O  O303  1  0.84205638  0.61712754  0.71871247  1  -1.102378  0.000821  -0.144431  -0.196392  0.000275  2.572221  0.001
O  O304  1  0.08668349  0.12719676  0.72365232  1  -1.132658  0.067721  -0.291115  -0.514761  0.035498  2.339718  0.058
O  O305  1  0.41332329  0.37280533  0.22367470  1  -1.133657  0.067633  -0.290847  -0.514137  0.035455  2.340149  0.058
O  O306  1  0.91330736  0.87279435  0.27635247  1  -1.133113  0.0677  -0.291088  -0.5148  0.035487  2.339581  0.058
O  O307  1  0.58669558  0.62720956  0.77632447  1  -1.134063  0.067678  -0.290753  -0.514292  0.035477  2.33929  0.058
O  O308  1  0.99509299  0.19748718  0.79429920  1  -1.15874  0.116997  -0.309081  -0.622918  0.061773  2.624711  0.103
O  O309  1  0.50488520  0.30250488  0.29432152  1  -1.159525  0.116969  -0.308912  -0.622795  0.061758  2.624928  0.103
O  O310  1  0.00490290  0.80250959  0.20570386  1  -1.158695  0.116998  -0.309055  -0.622868  0.061773  2.624532  0.103
O  O311  1  0.49514074  0.69751906  0.70567636  1  -1.159544  0.117004  -0.30879  -0.622622  0.061777  2.6248  0.103
O  O312  1  0.64032758  0.71552849  0.56550150  1  -1.127924  0.113865  -0.334108  -0.561659  0.058033  2.204511  0.09
O  O313  1  0.85969615  0.78450207  0.06552752  1  -1.127764  0.113829  -0.334144  -0.561991  0.058014  2.204965  0.09
O  O314  1  0.35968211  0.28447169  0.43449378  1  -1.128008  0.113873  -0.334124  -0.561626  0.058037  2.20452  0.09
O  O315  1  0.14030359  0.21549188  0.93446604  1  -1.127786  0.113835  -0.334057  -0.56184  0.058016  2.204954  0.09
O  O316  1  0.73257838  0.75887282  0.64580418  1  -1.130519  0.068345  -0.304929  -0.517075  0.033448  2.143469  0.06
O  O317  1  0.76743310  0.74118803  0.14584178  1  -1.130858  0.068345  -0.305008  -0.517127  0.033448  2.143091  0.06
O  O318  1  0.26742523  0.24111944  0.35419846  1  -1.130345  0.068337  -0.304841  -0.517058  0.033443  2.143375  0.06
O  O319  1  0.23256588  0.25881496  0.85415437  1  -1.131068  0.068345  -0.304934  -0.516957  0.033449  2.143053  0.06
O  O320  1  0.21266806  0.71109247  0.67903982  1  -1.1409  0.068583  -0.306184  -0.553325  0.035822  2.39334  0.057
O  O321  1  0.28733409  0.78891848  0.17906241  1  -1.141042  0.068565  -0.306387  -0.553825  0.035823  2.393212  0.057
O  O322  1  0.78733250  0.28889470  0.32095806  1  -1.140881  0.068583  -0.306301  -0.553548  0.035824  2.393006  0.057
O  O323  1  0.71266700  0.21109073  0.82093849  1  -1.141014  0.068577  -0.30633  -0.553738  0.035829  2.393235  0.057
O  O324  1  0.33820531  0.71414106  0.59766635  1  -1.157728  0.079739  -0.315482  -0.578155  0.041386  2.415067  0.063
O  O325  1  0.16181632  0.78585379  0.09768219  1  -1.1586  0.079724  -0.315662  -0.578464  0.041377  2.414845  0.063
O  O326  1  0.66180311  0.28584725  0.40233024  1  -1.157369  0.079716  -0.315417  -0.578203  0.041382  2.41527  0.063
O  O327  1  0.83818185  0.21415599  0.90231568  1  -1.158451  0.079735  -0.315788  -0.578551  0.041383  2.414686  0.063
O  O328  1  0.03401518  0.63016742  0.44344707  1  -1.11325  0.000972  -0.154369  -0.222349  0.000311  2.612697  0.001
O  O329  1  0.46600344  0.86982565  0.94344889  1  -1.113661  0.000971  -0.154392  -0.22228  0.000312  2.6125  0.001
O  O330  1  0.96598103  0.36984235  0.55655254  1  -1.113533  0.000971  -0.15433  -0.222403  0.000311  2.612514  0.001
O  O331  1  0.53399904  0.13016040  0.05653992  1  -1.113482  0.000971  -0.154369  -0.222402  0.000312  2.612584  0.001
O  O332  1  0.06362557  0.68074841  0.29176495  1  -1.16947  0.076888  -0.311475  -0.577646  0.040149  2.416782  0.067
O  O333  1  0.43639330  0.81928826  0.79171797  1  -1.169371  0.076886  -0.311487  -0.577559  0.040144  2.417571  0.067
O  O334  1  0.93637960  0.31926703  0.70825540  1  -1.169219  0.076885  -0.311365  -0.577444  0.040146  2.417141  0.067
O  O335  1  0.56359772  0.18070964  0.20827559  1  -1.16911  0.076894  -0.31138  -0.577557  0.040149  2.41702  0.067
O  O336  1  0.96142698  0.74614487  0.36279088  1  -1.138807  0.088669  -0.306848  -0.537383  0.045854  2.396592  0.074
O  O337  1  0.53850935  0.75387943  0.86276352  1  -1.138059  0.088619  -0.307018  -0.537432  0.045829  2.396558  0.074
O  O338  1  0.03856724  0.25386377  0.63722385  1  -1.138  0.088617  -0.307015  -0.537482  0.045828  2.396443  0.074
O  O339  1  0.46151219  0.24612473  0.13721448  1  -1.138613  0.088537  -0.306989  -0.537278  0.045779  2.396562  0.074
O  O340  1  0.16088300  0.81584285  0.77224976  1  -1.191206  0.047898  -0.55699  -0.71812  0.024581  2.009612  0.039
O  O341  1  0.33911376  0.68417926  0.27227509  1  -1.191403  0.047907  -0.55697  -0.718451  0.024586  2.009498  0.039
O  O342  1  0.83909144  0.18415785  0.22775114  1  -1.190963  0.047925  -0.556932  -0.718102  0.024592  2.009681  0.039
O  O343  1  0.66088916  0.31582430  0.72773705  1  -1.191322  0.047915  -0.55689  -0.718408  0.02459  2.009796  0.039
