# generated using pymatgen
data_GdH43C49N2Cl3O10
_symmetry_space_group_name_H-M   'P 1'
_cell_length_a   12.42586600
_cell_length_b   18.29490756
_cell_length_c   24.90031090
_cell_angle_alpha   89.99922485
_cell_angle_beta   90.00109162
_cell_angle_gamma   109.84083622
_symmetry_Int_Tables_number   1
_chemical_formula_structural   GdH43C49N2Cl3O10
_chemical_formula_sum   'Gd4 H172 C196 N8 Cl12 O40'
_cell_volume   5324.57174717
_cell_formula_units_Z   4
loop_
 _symmetry_equiv_pos_site_id
 _symmetry_equiv_pos_as_xyz
  1  'x, y, z'
loop_
 _atom_site_type_symbol
 _atom_site_label
 _atom_site_symmetry_multiplicity
 _atom_site_fract_x
 _atom_site_fract_y
 _atom_site_fract_z
 _atom_site_occupancy
 _atom_site_pbe_bader_charge
 _atom_site_pbe_bader_spin_density
 _atom_site_pbe_cm5_charge
 _atom_site_pbe_ddec_charge
 _atom_site_pbe_ddec_spin_density
 _atom_site_pbe_ddec_sum_bond_order
 _atom_site_pbe_magmom
Gd  Gd0  1  0.22545764  0.77152881  0.78608702  1  2.178856  0  1.486157  1.983502  0  2.309769  0
Gd  Gd1  1  0.77455154  0.22846014  0.28608813  1  2.178911  0  1.486143  1.983566  0  2.309609  0
Gd  Gd2  1  0.54590701  0.77142867  0.71387459  1  2.178782  0  1.485913  1.98358  0  2.308648  0
Gd  Gd3  1  0.45410788  0.22857559  0.21387426  1  2.178931  0  1.485944  1.983694  0  2.308525  0
H  H4  1  0.06916731  0.89264651  0.76130647  1  0.133986  0  0.120854  0.089618  0  1.012876  0
H  H5  1  0.02098275  0.00531773  0.79945475  1  0.092579  0  0.092707  0.096017  0  1.057188  0
H  H6  1  0.12106532  0.06950411  0.88325988  1  0.08201  0  0.096528  0.089019  0  1.028809  0
H  H7  1  0.26887252  0.02012740  0.92433422  1  0.093862  0  0.104991  0.10862  0  1.010529  0
H  H8  1  0.30649186  0.90844138  0.88063896  1  0.111077  0  0.116787  0.080092  0  1.046649  0
H  H9  1  0.07478405  0.54636906  0.89865710  1  0.101242  0  0.111542  0.126668  0  1.015753  0
H  H10  1  0.07057159  0.80276318  0.93222768  1  0.121144  0  0.108349  0.126383  0  1.029288  0
H  H11  1  0.91782124  0.78959342  0.08881299  1  0.07038  0  0.10166  0.108315  0  1.01501  0
H  H12  1  0.90183895  0.65170396  0.09652756  1  0.085845  0  0.104372  0.107406  0  1.007676  0
H  H13  1  0.98481275  0.42533451  0.90430092  1  0.041095  0  0.094721  0.048882  0  1.014067  0
H  H14  1  0.11555553  0.43489282  0.93831800  1  0.026562  0  0.099329  0.065824  0  0.993998  0
H  H15  1  0.99606473  0.29457678  0.92388451  1  0.02752  0  0.090349  0.124541  0  1.014953  0
H  H16  1  0.01209089  0.31632572  0.99366038  1  0.053881  0  0.092445  0.129833  0  1.012334  0
H  H17  1  0.88143305  0.30833642  0.96036095  1  -0.013039  0  0.090816  0.125036  0  1.00888  0
H  H18  1  0.66798847  0.35875562  0.09047577  1  0.10362  0  0.111453  0.127856  0  1.01676  0
H  H19  1  0.91142546  0.43429667  0.24522643  1  0.133767  0  0.11531  0.140756  0  1.011581  0
H  H20  1  0.19213270  0.63379148  0.19270700  1  0.05564  0  0.103938  0.115386  0  0.995628  0
H  H21  1  0.10485921  0.62438306  0.10248286  1  0.073004  0  0.099528  0.097037  0  1.03949  0
H  H22  1  0.72597156  0.33722678  0.00344109  1  0.047448  0  0.098127  0.053388  0  1.00303  0
H  H23  1  0.60328082  0.36665856  0.99717334  1  0.065918  0  0.092634  0.051049  0  1.018625  0
H  H24  1  0.66013993  0.33168048  0.90680342  1  0.031943  0  0.092197  0.127055  0  1.009489  0
H  H25  1  0.68272042  0.43289347  0.90922830  1  0.047662  0  0.090211  0.128308  0  1.029304  0
H  H26  1  0.80084654  0.39951779  0.91547272  1  0.037318  0  0.087911  0.122056  0  1.035426  0
H  H27  1  0.40144708  0.83177707  0.90736155  1  0.104206  0  0.114115  0.127978  0  1.041259  0
H  H28  1  0.71340467  0.98306243  0.79514521  1  0.128213  0  0.108645  0.135257  0  1.022443  0
H  H29  1  0.92928762  0.15683179  0.90211206  1  0.034393  0  0.094437  0.099145  0  1.041199  0
H  H30  1  0.79783608  0.10114389  0.97778426  1  0.057732  0  0.100923  0.104014  0  1.011074  0
H  H31  1  0.27318813  0.83679640  0.97307294  1  0.074147  0  0.098549  0.067372  0  1.000934  0
H  H32  1  0.35273769  0.77523937  0.98809513  1  0.047948  0  0.095559  0.052125  0  1.005105  0
H  H33  1  0.19680684  0.75554024  0.05515352  1  0.036772  0  0.087082  0.119843  0  1.040157  0
H  H34  1  0.33223249  0.79770993  0.08757925  1  0.040391  0  0.091769  0.126226  0  0.995365  0
H  H35  1  0.24732659  0.85578822  0.07174944  1  0.037968  0  0.088277  0.123588  0  1.017482  0
H  H36  1  0.96502084  0.64395774  0.74112868  1  0.11259  0  0.126745  0.047618  0  1.015005  0
H  H37  1  0.84726731  0.76837964  0.63270436  1  0.03044  0  0.107392  0.079088  0  0.994264  0
H  H38  1  0.92555974  0.81834088  0.68868531  1  0.076879  0  0.107006  0.078037  0  1.008076  0
H  H39  1  0.03443691  0.86824884  0.60495697  1  0.042959  0  0.083975  0.118025  0  1.016228  0
H  H40  1  0.10985447  0.82185967  0.64563255  1  0.075151  0  0.093197  0.137405  0  1.02833  0
H  H41  1  0.03351994  0.77372242  0.58774560  1  0.029969  0  0.083555  0.113026  0  1.02206  0
H  H42  1  0.84170991  0.58342463  0.68445882  1  0.054771  0  0.101199  0.071531  0  1.0114  0
H  H43  1  0.75080660  0.63286511  0.66040704  1  0.119316  0  0.101089  0.08589  0  1.027899  0
H  H44  1  0.80425838  0.56356942  0.58512464  1  0.068461  0  0.091738  0.133325  0  1.006226  0
H  H45  1  0.86661406  0.66432749  0.57406795  1  0.019557  0  0.084759  0.110808  0  1.040168  0
H  H46  1  0.95280557  0.61057896  0.59814021  1  0.054874  0  0.087918  0.124424  0  1.012584  0
H  H47  1  0.93082584  0.10732353  0.26131429  1  0.134457  0  0.120966  0.0898  0  1.01284  0
H  H48  1  0.97899936  0.99465306  0.29947469  1  0.092656  0  0.092722  0.095961  0  1.057279  0
H  H49  1  0.87892135  0.93048553  0.38328594  1  0.080592  0  0.096538  0.089142  0  1.028853  0
H  H50  1  0.73112315  0.97987226  0.42434793  1  0.093711  0  0.104914  0.108499  0  1.010798  0
H  H51  1  0.69350037  0.09154829  0.38064106  1  0.111006  0  0.116795  0.080177  0  1.046645  0
H  H52  1  0.92522249  0.45362855  0.39865460  1  0.101145  0  0.111531  0.126599  0  1.015789  0
H  H53  1  0.92944065  0.19723523  0.43223660  1  0.12135  0  0.108317  0.12638  0  1.029353  0
H  H54  1  0.08218247  0.21040929  0.58882653  1  0.070224  0  0.101688  0.108442  0  1.015067  0
H  H55  1  0.09815580  0.34829635  0.59653667  1  0.086177  0  0.104349  0.107389  0  1.007726  0
H  H56  1  0.01518248  0.57466419  0.40430341  1  0.041094  0  0.09474  0.048914  0  1.014033  0
H  H57  1  0.88444001  0.56510552  0.43831962  1  0.02667  0  0.099325  0.065857  0  0.993962  0
H  H58  1  0.00392296  0.70541823  0.42388158  1  0.027477  0  0.090372  0.124542  0  1.014894  0
H  H59  1  0.98790850  0.68367609  0.49365980  1  0.053897  0  0.092442  0.129831  0  1.01229  0
H  H60  1  0.11856495  0.69166517  0.46035804  1  -0.013163  0  0.090794  0.125032  0  1.008774  0
H  H61  1  0.33201775  0.64123430  0.59047415  1  0.103979  0  0.111395  0.12781  0  1.016843  0
H  H62  1  0.08858411  0.56570261  0.74522525  1  0.133651  0  0.115299  0.140791  0  1.011565  0
H  H63  1  0.80786958  0.36621011  0.69270502  1  0.055662  0  0.103944  0.115378  0  0.995688  0
H  H64  1  0.89513545  0.37561660  0.60248001  1  0.072933  0  0.099511  0.09697  0  1.039436  0
H  H65  1  0.27402147  0.66277396  0.50344554  1  0.047362  0  0.098108  0.053303  0  1.00306  0
H  H66  1  0.39670882  0.63333798  0.49718008  1  0.065941  0  0.092678  0.050959  0  1.01866  0
H  H67  1  0.33984125  0.66832052  0.40680687  1  0.032328  0  0.09223  0.127056  0  1.009592  0
H  H68  1  0.31727350  0.56710867  0.40923575  1  0.047761  0  0.09019  0.128269  0  1.029454  0
H  H69  1  0.19914036  0.60047789  0.41547751  1  0.037189  0  0.087924  0.122084  0  1.03548  0
H  H70  1  0.59855533  0.16822451  0.40736801  1  0.104321  0  0.114113  0.127926  0  1.041296  0
H  H71  1  0.28662175  0.01693456  0.29514097  1  0.128884  0  0.108591  0.135173  0  1.022551  0
H  H72  1  0.07072122  0.84316694  0.40210277  1  0.034539  0  0.094457  0.09921  0  1.041096  0
H  H73  1  0.20216646  0.89885576  0.47778129  1  0.057706  0  0.100923  0.104017  0  1.011079  0
H  H74  1  0.72680304  0.16320505  0.47307425  1  0.074015  0  0.098501  0.067346  0  1.000883  0
H  H75  1  0.64725508  0.22476250  0.48809466  1  0.047905  0  0.095546  0.052036  0  1.005153  0
H  H76  1  0.80318846  0.24446110  0.55515511  1  0.036821  0  0.087062  0.119836  0  1.04013  0
H  H77  1  0.66776307  0.20229106  0.58757998  1  0.040383  0  0.091767  0.126249  0  0.99533  0
H  H78  1  0.75266816  0.14421236  0.57175115  1  0.037908  0  0.088297  0.123617  0  1.017384  0
H  H79  1  0.03497534  0.35602473  0.24114278  1  0.11295  0  0.126804  0.047734  0  1.015179  0
H  H80  1  0.15273001  0.23162144  0.13270836  1  0.03071  0  0.107318  0.078999  0  0.994281  0
H  H81  1  0.07443595  0.18164623  0.18868505  1  0.076698  0  0.106945  0.077952  0  1.008028  0
H  H82  1  0.96555221  0.13176533  0.10495363  1  0.04331  0  0.084058  0.118217  0  1.016169  0
H  H83  1  0.89014455  0.17815348  0.14563366  1  0.075135  0  0.093241  0.137553  0  1.028159  0
H  H84  1  0.96648740  0.22629891  0.08775017  1  0.029789  0  0.083668  0.113176  0  1.022049  0
H  H85  1  0.15828160  0.41656891  0.18447228  1  0.054048  0  0.101174  0.071397  0  1.011519  0
H  H86  1  0.24919462  0.36713683  0.16041904  1  0.119385  0  0.101073  0.085873  0  1.027637  0
H  H87  1  0.19572838  0.43643508  0.08513987  1  0.067877  0  0.09178  0.133445  0  1.006412  0
H  H88  1  0.13338770  0.33567887  0.07407716  1  0.019778  0  0.084798  0.110831  0  1.040043  0
H  H89  1  0.04718311  0.38941552  0.09815168  1  0.054656  0  0.087946  0.124455  0  1.012512  0
H  H90  1  0.82278089  0.89270877  0.73873564  1  0.130387  0  0.120975  0.089662  0  1.013364  0
H  H91  1  0.98374986  0.00533037  0.70056016  1  0.098066  0  0.092598  0.095801  0  1.057177  0
H  H92  1  0.94793462  0.06938340  0.61663823  1  0.073646  0  0.096285  0.088837  0  1.028432  0
H  H93  1  0.75079030  0.02005307  0.57557098  1  0.08825  0  0.105181  0.108927  0  1.010654  0
H  H94  1  0.60150895  0.90842605  0.61929142  1  0.13572  0  0.116394  0.078933  0  1.047921  0
H  H95  1  0.47166718  0.54660688  0.60117435  1  0.115362  0  0.111396  0.12624  0  1.016038  0
H  H96  1  0.73246952  0.80279559  0.56771409  1  0.11185  0  0.108297  0.126565  0  1.028796  0
H  H97  1  0.87209756  0.78964613  0.41113083  1  0.063827  0  0.101794  0.108294  0  1.015627  0
H  H98  1  0.75009982  0.65183068  0.40333666  1  0.082851  0  0.104237  0.107521  0  1.007163  0
H  H99  1  0.44038319  0.42583593  0.59564636  1  0.050562  0  0.094892  0.049196  0  1.013407  0
H  H100  1  0.31922620  0.43536997  0.56158431  1  0.052183  0  0.098998  0.065136  0  0.994861  0
H  H101  1  0.29839019  0.29502793  0.57624175  1  0.026876  0  0.090622  0.125262  0  1.013743  0
H  H102  1  0.30404758  0.31660588  0.50643933  1  0.052029  0  0.092251  0.129661  0  1.013097  0
H  H103  1  0.42673081  0.30869072  0.53975199  1  0.030532  0  0.09079  0.125409  0  1.009191  0
H  H104  1  0.69119870  0.35882833  0.40947912  1  0.103589  0  0.111553  0.127998  0  1.016373  0
H  H105  1  0.52337825  0.43429106  0.25461282  1  0.121492  0  0.115155  0.140347  0  1.012451  0
H  H106  1  0.44203621  0.63380120  0.30706901  1  0.069611  0  0.104095  0.115617  0  0.995568  0
H  H107  1  0.51989500  0.62443445  0.39729240  1  0.081247  0  0.099464  0.097018  0  1.039442  0
H  H108  1  0.61167259  0.33746659  0.49653118  1  0.043744  0  0.098347  0.053572  0  1.003629  0
H  H109  1  0.76374482  0.36697270  0.50301039  1  0.052923  0  0.092545  0.050836  0  1.018981  0
H  H110  1  0.67121378  0.33183770  0.59318329  1  0.033311  0  0.091958  0.126523  0  1.010245  0
H  H111  1  0.74992349  0.43301933  0.59094303  1  0.058588  0  0.089897  0.127573  0  1.030039  0
H  H112  1  0.59848346  0.39975800  0.58446585  1  0.028229  0  0.087768  0.121826  0  1.035738  0
H  H113  1  0.43059026  0.83181793  0.59256240  1  0.096088  0  0.11429  0.128355  0  1.04226  0
H  H114  1  0.26907468  0.98267385  0.70479482  1  0.132155  0  0.108539  0.135645  0  1.022194  0
H  H115  1  0.22753799  0.15685355  0.59800890  1  0.056922  0  0.094522  0.099506  0  1.040188  0
H  H116  1  0.30357454  0.10134842  0.52232574  1  0.059999  0  0.100961  0.10409  0  1.011547  0
H  H117  1  0.56431560  0.83719029  0.52700720  1  0.077988  0  0.098457  0.067194  0  0.999991  0
H  H118  1  0.42325882  0.77562560  0.51192590  1  0.026547  0  0.095595  0.052212  0  1.004133  0
H  H119  1  0.55954915  0.75585176  0.44496042  1  0.027112  0  0.087189  0.120065  0  1.040384  0
H  H120  1  0.46640814  0.79808371  0.41248306  1  0.026931  0  0.091713  0.126008  0  0.996286  0
H  H121  1  0.60936568  0.85609648  0.42834229  1  0.02973  0  0.088269  0.123167  0  1.017908  0
H  H122  1  0.67854964  0.64393891  0.75908292  1  0.114603  0  0.127083  0.048181  0  1.015395  0
H  H123  1  0.92077563  0.76839395  0.86739455  1  0.026459  0  0.107564  0.079273  0  0.993888  0
H  H124  1  0.89222221  0.81831241  0.81142619  1  0.083664  0  0.106961  0.078061  0  1.007857  0
H  H125  1  0.83363820  0.86830667  0.89522542  1  0.043497  0  0.083895  0.118545  0  1.016125  0
H  H126  1  0.71169698  0.82198281  0.85462959  1  0.075783  0  0.093538  0.138417  0  1.027392  0
H  H127  1  0.74002675  0.77381933  0.91248587  1  0.018412  0  0.083745  0.113787  0  1.022445  0
H  H128  1  0.74100500  0.58342192  0.81583180  1  0.063941  0  0.101112  0.071332  0  1.011312  0
H  H129  1  0.88133800  0.63270300  0.83991024  1  0.104334  0  0.101175  0.085062  0  1.027307  0
H  H130  1  0.75832337  0.56357096  0.91513958  1  0.0746  0  0.091801  0.133717  0  1.006619  0
H  H131  1  0.79706098  0.66435154  0.92620901  1  0.007084  0  0.084876  0.111028  0  1.039774  0
H  H132  1  0.65708383  0.61083644  0.90209887  1  0.037925  0  0.088162  0.124892  0  1.011838  0
H  H133  1  0.17723232  0.10731440  0.23874030  1  0.130081  0  0.120973  0.089658  0  1.013234  0
H  H134  1  0.01624840  0.99469961  0.20056411  1  0.097378  0  0.092591  0.09585  0  1.057242  0
H  H135  1  0.05205480  0.93063529  0.11664758  1  0.074032  0  0.096344  0.088906  0  1.028366  0
H  H136  1  0.24919892  0.97995386  0.07558212  1  0.088642  0  0.10523  0.108981  0  1.010649  0
H  H137  1  0.39848659  0.09158215  0.11929754  1  0.099422  0  0.116501  0.079052  0  1.047778  0
H  H138  1  0.52833671  0.45339687  0.10117490  1  0.115246  0  0.1114  0.126251  0  1.016051  0
H  H139  1  0.26752444  0.19720213  0.06771752  1  0.112199  0  0.108279  0.126469  0  1.02884  0
H  H140  1  0.12790279  0.21035425  0.91113196  1  0.063915  0  0.101769  0.108244  0  1.015627  0
H  H141  1  0.24989413  0.34817036  0.90333758  1  0.083301  0  0.104232  0.107547  0  1.007151  0
H  H142  1  0.55962638  0.57416671  0.09564841  1  0.050571  0  0.094879  0.049232  0  1.013412  0
H  H143  1  0.68077839  0.56463014  0.06158561  1  0.052063  0  0.098999  0.065146  0  0.994961  0
H  H144  1  0.70161720  0.70497667  0.07624226  1  0.026693  0  0.090594  0.125209  0  1.013778  0
H  H145  1  0.69595901  0.68339599  0.00643999  1  0.052005  0  0.092221  0.129601  0  1.013168  0
H  H146  1  0.57327635  0.69131137  0.03975020  1  0.030646  0  0.090798  0.125449  0  1.009199  0
H  H147  1  0.30880334  0.64117556  0.90946765  1  0.103543  0  0.111593  0.128111  0  1.016273  0
H  H148  1  0.47662405  0.56569940  0.75460811  1  0.121482  0  0.115129  0.140222  0  1.012464  0
H  H149  1  0.55794150  0.36618113  0.80707590  1  0.069945  0  0.104044  0.115613  0  0.99551  0
H  H150  1  0.48008277  0.37555562  0.89729725  1  0.081319  0  0.099429  0.096953  0  1.039504  0
H  H151  1  0.38833758  0.66253403  0.99653029  1  0.043816  0  0.098321  0.053567  0  1.003684  0
H  H152  1  0.23626623  0.63303676  0.00300597  1  0.052981  0  0.092597  0.050898  0  1.018952  0
H  H153  1  0.32879081  0.66816322  0.09317981  1  0.033379  0  0.091972  0.126495  0  1.010197  0
H  H154  1  0.25007386  0.56698336  0.09093900  1  0.058526  0  0.08992  0.127569  0  1.030083  0
H  H155  1  0.40151369  0.60023837  0.08446695  1  0.027993  0  0.087766  0.121848  0  1.035725  0
H  H156  1  0.56939400  0.16817778  0.09256096  1  0.095954  0  0.114278  0.128405  0  1.042051  0
H  H157  1  0.73091843  0.01732296  0.20479160  1  0.132302  0  0.108564  0.135719  0  1.022218  0
H  H158  1  0.77249343  0.84315720  0.09801071  1  0.056289  0  0.094589  0.099538  0  1.040115  0
H  H159  1  0.69644184  0.89865734  0.02232548  1  0.060048  0  0.100934  0.104064  0  1.011372  0
H  H160  1  0.43567234  0.16281135  0.02700615  1  0.078094  0  0.098514  0.067274  0  0.999921  0
H  H161  1  0.57673654  0.22437272  0.01192598  1  0.026673  0  0.095617  0.052296  0  1.004052  0
H  H162  1  0.44044124  0.24415348  0.94495856  1  0.026892  0  0.087143  0.11997  0  1.040604  0
H  H163  1  0.53357877  0.20192188  0.91248291  1  0.027161  0  0.091752  0.126017  0  0.996285  0
H  H164  1  0.39062182  0.14391068  0.92834096  1  0.028711  0  0.088229  0.123147  0  1.018026  0
H  H165  1  0.32145765  0.35606603  0.25908367  1  0.114404  0  0.126998  0.047991  0  1.015492  0
H  H166  1  0.07922512  0.23160574  0.36738620  1  0.026793  0  0.107517  0.079202  0  0.993959  0
H  H167  1  0.10780016  0.18169777  0.31141781  1  0.083772  0  0.106911  0.078085  0  1.007937  0
H  H168  1  0.16635651  0.13169330  0.39522412  1  0.043071  0  0.08388  0.118512  0  1.016072  0
H  H169  1  0.28830715  0.17801818  0.35463220  1  0.076093  0  0.09353  0.138381  0  1.027362  0
H  H170  1  0.25997525  0.22618103  0.41248773  1  0.018379  0  0.083743  0.113794  0  1.022389  0
H  H171  1  0.25899945  0.41658588  0.31583136  1  0.066659  0  0.101134  0.071393  0  1.011369  0
H  H172  1  0.11866798  0.36730281  0.33990614  1  0.104387  0  0.101138  0.085026  0  1.027296  0
H  H173  1  0.24167702  0.43643402  0.41513838  1  0.074526  0  0.091783  0.133685  0  1.006584  0
H  H174  1  0.20294138  0.33565332  0.42620602  1  0.007227  0  0.084941  0.111123  0  1.039719  0
H  H175  1  0.34291759  0.38917159  0.40209909  1  0.037821  0  0.088181  0.124894  0  1.01187  0
C  C176  1  0.11076521  0.92295661  0.79743458  1  0.440579  0  0.051273  0.103191  0  3.9573  0
C  C177  1  0.08445305  0.98523365  0.81880135  1  0.009421  0  -0.092825  -0.139545  0  3.990986  0
C  C178  1  0.14074869  0.02126961  0.86517089  1  -0.073024  0  -0.07235  -0.027559  0  3.983692  0
C  C179  1  0.22235517  0.99405274  0.88812318  1  -0.05553  0  -0.088193  -0.140869  0  3.990343  0
C  C180  1  0.24328255  0.93139896  0.86421184  1  0.452534  0  0.051028  0.110713  0  3.947195  0
C  C181  1  0.96639248  0.56643201  0.02250190  1  0.031085  0  -0.015745  -0.071274  0  3.974846  0
C  C182  1  0.00298637  0.53118231  0.97956868  1  0.463527  0  0.091288  0.217083  0  4.054394  0
C  C183  1  0.04828070  0.57374309  0.93259858  1  0.01451  0  -0.094032  -0.220511  0  3.979277  0
C  C184  1  0.06125573  0.65169242  0.92868345  1  -0.013571  0  -0.009725  -0.04128  0  3.947018  0
C  C185  1  0.02653458  0.69033076  0.97150384  1  0.017018  0  -0.007263  0.051388  0  3.986378  0
C  C186  1  0.03287523  0.76916271  0.96773967  1  0.036797  0  -0.09678  -0.205819  0  3.97333  0
C  C187  1  0.99300034  0.80297324  0.00905725  1  -0.059593  0  0.004789  0.139911  0  4.081794  0
C  C188  1  0.94699408  0.76110694  0.05627271  1  0.021134  0  -0.098475  -0.1579  0  4.03322  0
C  C189  1  0.93883710  0.68437934  0.06047180  1  -0.065836  0  -0.088747  -0.112339  0  3.988879  0
C  C190  1  0.97735228  0.64620852  0.01864458  1  -0.058265  0  -0.006896  0.029666  0  3.995933  0
C  C191  1  0.11308573  0.69369488  0.87834235  1  1.556222  0  0.19138  0.573006  0  4.235048  0
C  C192  1  0.02164978  0.41386439  0.94234612  1  0.435283  0  -0.064957  0.08334  0  3.894384  0
C  C193  1  0.97491308  0.32827006  0.95611717  1  -0.006306  0  -0.244589  -0.392307  0  3.953161  0
C  C194  1  0.90847351  0.51698012  0.06842981  1  0.062159  0  -0.017543  -0.075462  0  3.991233  0
C  C195  1  0.80435941  0.45830436  0.05840403  1  0.430504  0  0.08232  0.200605  0  4.099913  0
C  C196  1  0.74944981  0.40431958  0.09857141  1  -0.025892  0  -0.096599  -0.220458  0  3.996658  0
C  C197  1  0.79816890  0.40716847  0.14880634  1  -0.011112  0  -0.007151  -0.045257  0  3.921733  0
C  C198  1  0.90253738  0.46767646  0.16182405  1  -0.008237  0  -0.004839  0.063906  0  3.964733  0
C  C199  1  0.95301240  0.47535835  0.21370673  1  -0.0043  0  -0.094657  -0.204623  0  3.946282  0
C  C200  1  0.05489491  0.53421840  0.22378839  1  0.009679  0  0.003713  0.139156  0  4.089559  0
C  C201  1  0.11115543  0.58830884  0.18367563  1  0.018391  0  -0.10073  -0.157673  0  4.029166  0
C  C202  1  0.06230968  0.58260319  0.13350818  1  -0.059976  0  -0.09214  -0.116233  0  4.000974  0
C  C203  1  0.95727620  0.52329186  0.12078800  1  0.009603  0  -0.005917  0.036876  0  3.980939  0
C  C204  1  0.73795435  0.34245496  0.18681273  1  1.580344  0  0.236913  0.660443  0  4.145497  0
C  C205  1  0.69405879  0.38139610  0.98611078  1  0.368652  0  -0.068006  0.085927  0  3.898858  0
C  C206  1  0.71059267  0.38679960  0.92586781  1  -0.042359  0  -0.249426  -0.403684  0  3.951325  0
C  C207  1  0.60102170  0.98063648  0.97344447  1  0.08591  0  -0.013953  -0.065151  0  3.99682  0
C  C208  1  0.50275699  0.91617005  0.96550787  1  0.456449  0  0.083385  0.206838  0  4.078159  0
C  C209  1  0.47897819  0.88135858  0.91437845  1  -0.077223  0  -0.097443  -0.229253  0  3.995857  0
C  C210  1  0.55175753  0.91022859  0.87122778  1  0.043764  0  -0.008169  -0.055464  0  3.923057  0
C  C211  1  0.65430365  0.97533104  0.87780899  1  0.000447  0  -0.003071  0.067815  0  3.9595  0
C  C212  1  0.73085003  0.00888988  0.83493678  1  0.061227  0  -0.096534  -0.198312  0  3.936393  0
C  C213  1  0.82612424  0.07332573  0.84431110  1  -0.039825  0  0.00188  0.144504  0  4.074973  0
C  C214  1  0.85214371  0.10675456  0.89593049  1  0.004388  0  -0.107221  -0.164461  0  4.054926  0
C  C215  1  0.77888156  0.07561301  0.93781050  1  -0.024422  0  -0.091359  -0.110344  0  3.994266  0
C  C216  1  0.67777713  0.01030358  0.93018473  1  -0.018514  0  -0.003982  0.04253  0  3.978888  0
C  C217  1  0.51424026  0.86961917  0.81864573  1  1.584122  0  0.238952  0.660058  0  4.127914  0
C  C218  1  0.33023169  0.82489454  0.00306008  1  0.379467  0  -0.068939  0.086395  0  3.893863  0
C  C219  1  0.27369666  0.80760318  0.05763633  1  -0.050181  0  -0.246438  -0.394691  0  3.958453  0
C  C220  1  0.97689359  0.70241254  0.72515556  1  1.375381  0  0.184968  0.333337  0  4.09829  0
C  C221  1  0.92568906  0.77800465  0.65610921  1  0.312721  0  -0.057973  0.003767  0  3.879438  0
C  C222  1  0.03244403  0.81210209  0.62147671  1  -0.100503  0  -0.24746  -0.385883  0  3.922503  0
C  C223  1  0.83830821  0.63092889  0.65821352  1  0.252141  0  -0.063665  -0.028181  0  3.923569  0
C  C224  1  0.86817331  0.61682743  0.60066826  1  -0.100452  0  -0.245725  -0.375639  0  3.923838  0
C  C225  1  0.88922434  0.07702118  0.29744110  1  0.441661  0  0.05086  0.102695  0  3.957587  0
C  C226  1  0.91553047  0.01474333  0.31881717  1  0.009306  0  -0.092338  -0.138869  0  3.990794  0
C  C227  1  0.85923917  0.97871732  0.36518743  1  -0.072242  0  -0.072637  -0.028052  0  3.984098  0
C  C228  1  0.77763437  0.00593743  0.38813617  1  -0.055583  0  -0.088015  -0.140588  0  3.990493  0
C  C229  1  0.75670791  0.06858682  0.36421678  1  0.452707  0  0.050958  0.110477  0  3.94706  0
C  C230  1  0.03360316  0.43356445  0.52250473  1  0.031014  0  -0.015697  -0.071301  0  3.974931  0
C  C231  1  0.99701178  0.46881326  0.47956912  1  0.464059  0  0.091243  0.217136  0  4.054392  0
C  C232  1  0.95172264  0.42625357  0.43259781  1  0.014257  0  -0.093961  -0.220235  0  3.979217  0
C  C233  1  0.93874419  0.34830253  0.42868574  1  -0.013587  0  -0.009818  -0.04155  0  3.947432  0
C  C234  1  0.97346147  0.30966606  0.47151046  1  0.016917  0  -0.007141  0.051748  0  3.986236  0
C  C235  1  0.96712288  0.23083531  0.46774942  1  0.036873  0  -0.096867  -0.206211  0  3.973627  0
C  C236  1  0.00699770  0.19702744  0.50906940  1  -0.059699  0  0.004937  0.140417  0  4.081531  0
C  C237  1  0.05300339  0.23889380  0.55628529  1  0.021206  0  -0.098566  -0.158358  0  4.03367  0
C  C238  1  0.06115831  0.31562020  0.56048168  1  -0.066394  0  -0.08875  -0.112268  0  3.989026  0
C  C239  1  0.02264112  0.35378857  0.51865091  1  -0.058262  0  -0.006886  0.029618  0  3.995795  0
C  C240  1  0.88692448  0.30629714  0.37834416  1  1.5565  0  0.191461  0.572987  0  4.234691  0
C  C241  1  0.97834663  0.58613217  0.44234843  1  0.435279  0  -0.065025  0.083253  0  3.894492  0
C  C242  1  0.02508333  0.67172867  0.45611639  1  -0.006172  0  -0.244596  -0.392248  0  3.952951  0
C  C243  1  0.09152824  0.48301700  0.56843230  1  0.06228  0  -0.017548  -0.075279  0  3.991051  0
C  C244  1  0.19563924  0.54169055  0.55840653  1  0.430435  0  0.0823  0.200559  0  4.099843  0
C  C245  1  0.25055807  0.59567141  0.59857228  1  -0.026591  0  -0.096605  -0.220504  0  3.996833  0
C  C246  1  0.20184114  0.59282139  0.64880798  1  -0.011657  0  -0.00712  -0.045141  0  3.921784  0
C  C247  1  0.09746919  0.53231675  0.66182249  1  -0.007735  0  -0.004689  0.063961  0  3.965073  0
C  C248  1  0.04699249  0.52463720  0.71370597  1  -0.003977  0  -0.094789  -0.204808  0  3.94641  0
C  C249  1  0.94510864  0.46577530  0.72378833  1  0.009729  0  0.003841  0.139274  0  4.089475  0
C  C250  1  0.88884688  0.41168704  0.68367598  1  0.018026  0  -0.100703  -0.157621  0  4.029243  0
C  C251  1  0.93769017  0.41739323  0.63350934  1  -0.05982  0  -0.092097  -0.116087  0  4.000876  0
C  C252  1  0.04272704  0.47670586  0.62078848  1  0.009472  0  -0.005977  0.036755  0  3.981052  0
C  C253  1  0.26207264  0.65753856  0.68681270  1  1.582858  0  0.236844  0.66038  0  4.145653  0
C  C254  1  0.30593275  0.61860347  0.48611641  1  0.369074  0  -0.067905  0.086278  0  3.898954  0
C  C255  1  0.28939667  0.61320178  0.42587253  1  -0.042972  0  -0.249561  -0.403822  0  3.951751  0
C  C256  1  0.39897203  0.01936845  0.47344730  1  0.086475  0  -0.013987  -0.065092  0  3.996719  0
C  C257  1  0.49723665  0.08383206  0.46550979  1  0.456116  0  0.083358  0.206837  0  4.07796  0
C  C258  1  0.52101934  0.11864234  0.41438025  1  -0.077811  0  -0.097412  -0.229213  0  3.995927  0
C  C259  1  0.44824516  0.08977629  0.37122798  1  0.043791  0  -0.008171  -0.055583  0  3.923096  0
C  C260  1  0.34569449  0.02467551  0.37780885  1  0.000346  0  -0.003074  0.068  0  3.959137  0
C  C261  1  0.26915601  0.99111481  0.33493434  1  0.060454  0  -0.096429  -0.198266  0  3.936435  0
C  C262  1  0.17388247  0.92668119  0.34430558  1  -0.039784  0  0.001819  0.144499  0  4.074883  0
C  C263  1  0.14785598  0.89324889  0.39592385  1  0.00623  0  -0.107278  -0.164562  0  4.054665  0
C  C264  1  0.22111497  0.92439056  0.43780746  1  -0.026351  0  -0.091275  -0.110263  0  3.994188  0
C  C265  1  0.32221767  0.98970356  0.43018522  1  -0.01773  0  -0.003992  0.042409  0  3.978762  0
C  C266  1  0.48576666  0.13038047  0.31864467  1  1.584438  0  0.238955  0.660112  0  4.128108  0
C  C267  1  0.66975972  0.17510621  0.50306150  1  0.379788  0  -0.068906  0.086597  0  3.893876  0
C  C268  1  0.72629792  0.19239813  0.55763690  1  -0.050194  0  -0.246463  -0.394828  0  3.958451  0
C  C269  1  0.02311979  0.29758463  0.22516208  1  1.375423  0  0.185244  0.333525  0  4.097397  0
C  C270  1  0.07431034  0.22199559  0.15611216  1  0.312838  0  -0.057785  0.004087  0  3.879138  0
C  C271  1  0.96755355  0.18790841  0.12147806  1  -0.100704  0  -0.24766  -0.386417  0  3.922652  0
C  C272  1  0.16168521  0.36906726  0.15822708  1  0.252106  0  -0.063725  -0.028158  0  3.923455  0
C  C273  1  0.13182164  0.38317458  0.10068020  1  -0.099306  0  -0.245734  -0.375715  0  3.923791  0
C  C274  1  0.81159847  0.92302948  0.70257926  1  0.434003  0  0.050849  0.102328  0  3.959313  0
C  C275  1  0.90023029  0.98526122  0.68119530  1  0.012496  0  -0.091952  -0.137645  0  3.990595  0
C  C276  1  0.88002080  0.02122304  0.63478210  1  -0.061262  0  -0.072716  -0.028596  0  3.984769  0
C  C277  1  0.77121079  0.99402082  0.61182000  1  -0.063749  0  -0.088432  -0.14154  0  3.99203  0
C  C278  1  0.68761715  0.93141446  0.63574251  1  0.447458  0  0.052018  0.113232  0  3.947213  0
C  C279  1  0.60015675  0.56653281  0.47734308  1  0.018788  0  -0.015747  -0.070883  0  3.976138  0
C  C280  1  0.52825172  0.53137159  0.52026727  1  0.555246  0  0.090328  0.215678  0  4.05826  0
C  C281  1  0.52560339  0.57394986  0.56724116  1  -0.094833  0  -0.093661  -0.219845  0  3.980624  0
C  C282  1  0.59069701  0.65184715  0.57119123  1  -0.043187  0  -0.009469  -0.040116  0  3.947356  0
C  C283  1  0.66404883  0.69043568  0.52837104  1  0.045398  0  -0.007051  0.051018  0  3.986916  0
C  C284  1  0.73657174  0.76924188  0.53217336  1  -0.028401  0  -0.096597  -0.206232  0  3.97295  0
C  C285  1  0.81028583  0.80304083  0.49088128  1  0.023619  0  0.004632  0.140182  0  4.080698  0
C  C286  1  0.81437318  0.76118884  0.44365158  1  -0.029282  0  -0.098808  -0.158166  0  4.034158  0
C  C287  1  0.74576286  0.68447846  0.43941072  1  0.004159  0  -0.088322  -0.11205  0  3.989032  0
C  C288  1  0.66903513  0.64629753  0.48121967  1  -0.067749  0  -0.007036  0.029689  0  3.996931  0
C  C289  1  0.58089826  0.69382795  0.62155099  1  1.56431  0  0.190715  0.571764  0  4.238455  0
C  C290  1  0.39205391  0.41425452  0.55760811  1  0.397096  0  -0.064894  0.084382  0  3.893256  0
C  C291  1  0.35317402  0.32862772  0.54396916  1  -0.045254  0  -0.244711  -0.393539  0  3.954414  0
C  C292  1  0.60873163  0.51704639  0.43143630  1  0.066979  0  -0.016857  -0.074661  0  3.99182  0
C  C293  1  0.65427275  0.45842067  0.44150456  1  0.427182  0  0.081497  0.199248  0  4.101463  0
C  C294  1  0.65531544  0.40441252  0.40136718  1  0.00795  0  -0.096305  -0.219085  0  3.995383  0
C  C295  1  0.60945493  0.40721477  0.35111657  1  -0.040312  0  -0.007186  -0.046437  0  3.922612  0
C  C296  1  0.56560294  0.46771447  0.33802386  1  -0.013217  0  -0.004659  0.065181  0  3.962355  0
C  C297  1  0.52285691  0.47537580  0.28611543  1  0.025075  0  -0.094006  -0.204311  0  3.945761  0
C  C298  1  0.47981064  0.53423668  0.27600180  1  0.000876  0  0.003448  0.138924  0  4.090634  0
C  C299  1  0.47763792  0.58836695  0.31609179  1  0.028234  0  -0.100838  -0.157428  0  4.02897  0
C  C300  1  0.52073460  0.58267908  0.36627212  1  -0.094714  0  -0.091824  -0.116345  0  4.002403  0
C  C301  1  0.56642187  0.52336356  0.37904516  1  0.004535  0  -0.006688  0.035617  0  3.982426  0
C  C302  1  0.60470721  0.34241454  0.31313823  1  1.614832  0  0.237159  0.661483  0  4.142883  0
C  C303  1  0.68757624  0.38165540  0.51394676  1  0.385533  0  -0.067986  0.08581  0  3.899453  0
C  C304  1  0.67604908  0.38701845  0.57416039  1  -0.046185  0  -0.249111  -0.402364  0  3.951894  0
C  C305  1  0.37973538  0.98073981  0.52656546  1  0.039184  0  -0.013777  -0.062215  0  3.993427  0
C  C306  1  0.41374543  0.91633691  0.53447990  1  0.468631  0  0.083509  0.205823  0  4.076179  0
C  C307  1  0.40254238  0.88137579  0.58556613  1  -0.092247  0  -0.097764  -0.230094  0  3.997704  0
C  C308  1  0.35836799  0.91009575  0.62870660  1  0.055306  0  -0.007756  -0.053883  0  3.922745  0
C  C309  1  0.32088826  0.97520959  0.62215959  1  -0.041887  0  -0.002984  0.068425  0  3.958134  0
C  C310  1  0.27768098  0.00865520  0.66503394  1  0.025662  0  -0.096352  -0.1994  0  3.935123  0
C  C311  1  0.24689427  0.07313749  0.65571029  1  -0.011328  0  0.001949  0.144968  0  4.074245  0
C  C312  1  0.25457284  0.10675998  0.60414575  1  -0.010692  0  -0.107226  -0.164629  0  4.053168  0
C  C313  1  0.29683753  0.07570871  0.56226510  1  -0.026838  0  -0.091393  -0.109942  0  3.994947  0
C  C314  1  0.33255680  0.01033639  0.56983658  1  0.048123  0  -0.004154  0.040862  0  3.980848  0
C  C315  1  0.35512948  0.86940076  0.68126918  1  1.585343  0  0.238895  0.659776  0  4.130374  0
C  C316  1  0.49542926  0.82528026  0.49698121  1  0.39688  0  -0.068748  0.086919  0  3.891533  0
C  C317  1  0.53477442  0.80794709  0.44243678  1  -0.022766  0  -0.24689  -0.394808  0  3.959257  0
C  C318  1  0.72518109  0.70239682  0.77499350  1  1.372242  0  0.184237  0.332198  0  4.101142  0
C  C319  1  0.85191795  0.77802002  0.84404105  1  0.287691  0  -0.057666  0.00487  0  3.878029  0
C  C320  1  0.77939551  0.81217261  0.87872926  1  -0.074332  0  -0.247939  -0.388813  0  3.923985  0
C  C321  1  0.79195553  0.63090220  0.84206321  1  0.241762  0  -0.06395  -0.027234  0  3.923421  0
C  C322  1  0.74791132  0.61690949  0.89959328  1  -0.063184  0  -0.24578  -0.376722  0  3.923545  0
C  C323  1  0.18840699  0.07699060  0.20258473  1  0.434987  0  0.050936  0.102448  0  3.959396  0
C  C324  1  0.09976949  0.01476199  0.18120215  1  0.011209  0  -0.092146  -0.137917  0  3.991186  0
C  C325  1  0.11997404  0.97879545  0.13479001  1  -0.060213  0  -0.07254  -0.028406  0  3.985012  0
C  C326  1  0.22878143  0.00599095  0.11182818  1  -0.064204  0  -0.088596  -0.141715  0  3.992371  0
C  C327  1  0.31237965  0.06859821  0.13574845  1  0.483458  0  0.051767  0.112966  0  3.947734  0
C  C328  1  0.39984114  0.43347207  0.97734417  1  0.018829  0  -0.015718  -0.070873  0  3.976252  0
C  C329  1  0.47174924  0.46863245  0.02026794  1  0.555372  0  0.090306  0.215632  0  4.058248  0
C  C330  1  0.47439910  0.42605367  0.06724267  1  -0.095006  0  -0.093636  -0.219834  0  3.980827  0
C  C331  1  0.40930942  0.34815751  0.07119290  1  -0.042909  0  -0.009468  -0.040137  0  3.947542  0
C  C332  1  0.33594852  0.30956537  0.02837521  1  0.045473  0  -0.007117  0.050959  0  3.986967  0
C  C333  1  0.26342545  0.23075855  0.03217641  1  -0.028928  0  -0.09658  -0.20609  0  3.972954  0
C  C334  1  0.18971353  0.19696275  0.99088354  1  0.023709  0  0.004599  0.140167  0  4.08087  0
C  C335  1  0.18561968  0.23881176  0.94365458  1  -0.029586  0  -0.098772  -0.15814  0  4.034184  0
C  C336  1  0.25422912  0.31552394  0.93941402  1  0.003855  0  -0.088349  -0.112038  0  3.988909  0
C  C337  1  0.33096150  0.35370616  0.98122331  1  -0.067465  0  -0.006934  0.029689  0  3.996834  0
C  C338  1  0.41911719  0.30617964  0.12155317  1  1.563582  0  0.190774  0.571897  0  4.23825  0
C  C339  1  0.60795252  0.58574795  0.05761051  1  0.397378  0  -0.064916  0.084229  0  3.893164  0
C  C340  1  0.64683196  0.67137491  0.04396987  1  -0.045206  0  -0.244584  -0.393389  0  3.954391  0
C  C341  1  0.39126266  0.48295319  0.93143482  1  0.06661  0  -0.016917  -0.074784  0  3.992097  0
C  C342  1  0.34572129  0.54157763  0.94150286  1  0.426926  0  0.081601  0.199364  0  4.101407  0
C  C343  1  0.34468481  0.59558681  0.90136293  1  0.008315  0  -0.096393  -0.219252  0  3.995324  0
C  C344  1  0.39055904  0.59278684  0.85111479  1  -0.039633  0  -0.00709  -0.046426  0  3.922524  0
C  C345  1  0.43439862  0.53228263  0.83802430  1  -0.01318  0  -0.00471  0.065075  0  3.962409  0
C  C346  1  0.47714159  0.52461432  0.78611555  1  0.025517  0  -0.094025  -0.204088  0  3.945732  0
C  C347  1  0.52017803  0.46575064  0.77600493  1  0.000446  0  0.003443  0.138723  0  4.090535  0
C  C348  1  0.52234694  0.41161935  0.81609587  1  0.027047  0  -0.100702  -0.157243  0  4.028675  0
C  C349  1  0.47924895  0.41731365  0.86627614  1  -0.094267  0  -0.091893  -0.116451  0  4.002401  0
C  C350  1  0.43357414  0.47663542  0.87904534  1  0.004571  0  -0.006632  0.035734  0  3.982537  0
C  C351  1  0.39531765  0.65758922  0.81313705  1  1.614399  0  0.237227  0.66162  0  4.142577  0
C  C352  1  0.31242869  0.61834580  0.01394322  1  0.385319  0  -0.068008  0.085744  0  3.899552  0
C  C353  1  0.32395132  0.61298036  0.07415821  1  -0.045827  0  -0.249116  -0.402308  0  3.951852  0
C  C354  1  0.62025512  0.01925894  0.02656397  1  0.039267  0  -0.013787  -0.062155  0  3.993471  0
C  C355  1  0.58624205  0.08366001  0.03447985  1  0.467664  0  0.083413  0.20572  0  4.076418  0
C  C356  1  0.59744844  0.11862231  0.08556504  1  -0.09187  0  -0.097641  -0.230015  0  3.997486  0
C  C357  1  0.64163323  0.08990537  0.12870582  1  0.055425  0  -0.007809  -0.053922  0  3.922763  0
C  C358  1  0.67911274  0.02479160  0.12215821  1  -0.041871  0  -0.002963  0.068425  0  3.958085  0
C  C359  1  0.72231953  0.99134494  0.16503299  1  0.025629  0  -0.096466  -0.199589  0  3.935279  0
C  C360  1  0.75310944  0.92686334  0.15571149  1  -0.011378  0  0.001987  0.145005  0  4.074406  0
C  C361  1  0.74543926  0.89324548  0.10414640  1  -0.009882  0  -0.107296  -0.164704  0  4.053237  0
C  C362  1  0.70316664  0.92429371  0.06226464  1  -0.027138  0  -0.091326  -0.109826  0  3.994722  0
C  C363  1  0.66744111  0.98966421  0.06983433  1  0.048228  0  -0.004166  0.040868  0  3.980801  0
C  C364  1  0.64487413  0.13059631  0.18126562  1  1.585464  0  0.238968  0.659976  0  4.13038  0
C  C365  1  0.50455684  0.17472209  0.99697864  1  0.396276  0  -0.068865  0.086596  0  3.891629  0
C  C366  1  0.46521347  0.19205817  0.94243608  1  -0.021582  0  -0.246819  -0.394585  0  3.959574  0
C  C367  1  0.27483448  0.29760736  0.27499358  1  1.373213  0  0.184471  0.332575  0  4.101158  0
C  C368  1  0.14808868  0.22198515  0.34403667  1  0.287678  0  -0.05757  0.00496  0  3.87801  0
C  C369  1  0.22060459  0.18782812  0.37872872  1  -0.074406  0  -0.247903  -0.388711  0  3.923696  0
C  C370  1  0.20804985  0.36910707  0.34206276  1  0.238696  0  -0.06389  -0.0271  0  3.923505  0
C  C371  1  0.25209076  0.38309682  0.39959190  1  -0.063136  0  -0.245834  -0.376764  0  3.92356  0
N  N372  1  0.18784148  0.89546006  0.81994404  1  -1.232711  0  -0.37216  -0.332283  0  3.467339  0
N  N373  1  0.91665551  0.70340272  0.68111083  1  -1.186628  0  -0.266897  -0.05338  0  3.623287  0
N  N374  1  0.81215180  0.10451864  0.31994674  1  -1.233496  0  -0.372154  -0.332228  0  3.467373  0
N  N375  1  0.08334751  0.29659318  0.18112357  1  -1.186974  0  -0.26707  -0.053453  0  3.623887  0
N  N376  1  0.70708015  0.89552659  0.68004223  1  -1.2401  0  -0.372847  -0.333371  0  3.467958  0
N  N377  1  0.78628310  0.70340387  0.81908038  1  -1.180164  0  -0.266707  -0.053376  0  3.621575  0
N  N378  1  0.29292466  0.10448908  0.18004682  1  -1.239861  0  -0.372691  -0.333212  0  3.468314  0
N  N379  1  0.21372906  0.29660622  0.31908150  1  -1.17995  0  -0.266776  -0.053759  0  3.6217  0
Cl  Cl380  1  0.99857178  0.89883776  0.00334482  1  -0.227069  0  -0.002692  -0.086511  0  1.544147  0
Cl  Cl381  1  0.11792798  0.54227413  0.28700874  1  -0.240147  0  -0.01724  -0.100506  0  1.477865  0
Cl  Cl382  1  0.91823127  0.11681060  0.79169149  1  -0.244185  0  -0.027203  -0.112516  0  1.479616  0
Cl  Cl383  1  0.00143683  0.10116357  0.50335466  1  -0.227212  0  -0.002642  -0.086504  0  1.543994  0
Cl  Cl384  1  0.88207345  0.45772178  0.78700294  1  -0.240052  0  -0.017345  -0.100599  0  1.477877  0
Cl  Cl385  1  0.08179392  0.88319223  0.29168392  1  -0.244192  0  -0.027205  -0.112538  0  1.479707  0
Cl  Cl386  1  0.90072182  0.89884624  0.49666189  1  -0.239527  0  -0.002292  -0.086233  0  1.544369  0
Cl  Cl387  1  0.42464877  0.54219185  0.21280470  1  -0.238586  0  -0.017279  -0.100537  0  1.478559  0
Cl  Cl388  1  0.19795822  0.11641991  0.70833449  1  -0.245459  0  -0.027312  -0.112836  0  1.481226  0
Cl  Cl389  1  0.09927943  0.10115263  0.99666022  1  -0.239549  0  -0.002334  -0.086275  0  1.544232  0
Cl  Cl390  1  0.57533850  0.45779267  0.71280763  1  -0.238352  0  -0.017267  -0.100474  0  1.478417  0
Cl  Cl391  1  0.80204370  0.88357976  0.20833819  1  -0.245463  0  -0.027354  -0.112881  0  1.481284  0
O  O392  1  0.19418036  0.75924287  0.88252308  1  -1.188335  0  -0.381386  -0.643366  0  2.258254  0
O  O393  1  0.07658415  0.66330078  0.83302883  1  -1.17668  0  -0.362299  -0.609963  0  2.215035  0
O  O394  1  0.99028979  0.45480844  0.98569737  1  -1.070443  0  -0.173562  -0.189713  0  2.562268  0
O  O395  1  0.63004380  0.32103995  0.18812917  1  -1.157543  0  -0.384423  -0.649875  0  2.343358  0
O  O396  1  0.79991114  0.31220151  0.21322931  1  -1.2004  0  -0.396299  -0.656972  0  2.323986  0
O  O397  1  0.75898057  0.45630482  0.00822012  1  -1.07921  0  -0.183713  -0.208295  0  2.555876  0
O  O398  1  0.40688978  0.84364010  0.81002016  1  -1.193781  0  -0.413271  -0.692184  0  2.394552  0
O  O399  1  0.58870368  0.86134699  0.78661279  1  -1.189786  0  -0.374384  -0.636164  0  2.299117  0
O  O400  1  0.43279943  0.89153114  0.00898185  1  -1.076361  0  -0.182617  -0.202286  0  2.53924  0
O  O401  1  0.04230397  0.76263613  0.74786619  1  -1.187108  0  -0.365468  -0.554997  0  2.381342  0
O  O402  1  0.80582728  0.24074852  0.38252236  1  -1.188442  0  -0.381413  -0.643233  0  2.257977  0
O  O403  1  0.92343317  0.33668476  0.33302908  1  -1.176684  0  -0.362385  -0.610081  0  2.214968  0
O  O404  1  0.00970511  0.54518823  0.48569810  1  -1.070699  0  -0.173512  -0.189892  0  2.562417  0
O  O405  1  0.36998011  0.67894890  0.68812473  1  -1.157498  0  -0.384419  -0.649814  0  2.343521  0
O  O406  1  0.20011687  0.68778881  0.71323120  1  -1.202408  0  -0.396157  -0.656923  0  2.323882  0
O  O407  1  0.24101116  0.54369297  0.50821981  1  -1.079382  0  -0.18378  -0.208406  0  2.555775  0
O  O408  1  0.59312262  0.15636312  0.31002267  1  -1.193969  0  -0.413264  -0.692156  0  2.394547  0
O  O409  1  0.41130800  0.13864370  0.28660532  1  -1.190026  0  -0.374436  -0.636207  0  2.299208  0
O  O410  1  0.56719626  0.10847128  0.50898496  1  -1.076476  0  -0.18259  -0.202313  0  2.539142  0
O  O411  1  0.95768727  0.23733755  0.24787498  1  -1.187128  0  -0.365659  -0.555221  0  2.379957  0
O  O412  1  0.56514224  0.75931619  0.61740607  1  -1.186856  0  -0.380665  -0.642548  0  2.260067  0
O  O413  1  0.58716789  0.66344479  0.66685623  1  -1.171573  0  -0.361859  -0.609649  0  2.216695  0
O  O414  1  0.46437052  0.45502407  0.51418951  1  -1.074448  0  -0.173046  -0.189996  0  2.561588  0
O  O415  1  0.69103997  0.32082275  0.31181708  1  -1.197837  0  -0.384771  -0.650246  0  2.344064  0
O  O416  1  0.51246868  0.31227252  0.28674510  1  -1.193766  0  -0.396389  -0.657379  0  2.322998  0
O  O417  1  0.69757707  0.45652921  0.49172985  1  -1.075983  0  -0.183559  -0.208227  0  2.555619  0
O  O418  1  0.43636971  0.84329750  0.68991457  1  -1.206712  0  -0.413984  -0.692439  0  2.397578  0
O  O419  1  0.27242341  0.86125702  0.71330136  1  -1.189449  0  -0.374216  -0.636058  0  2.300785  0
O  O420  1  0.45944880  0.89189618  0.49103740  1  -1.074425  0  -0.18265  -0.202113  0  2.538605  0
O  O421  1  0.72015914  0.76261948  0.75220189  1  -1.184157  0  -0.36484  -0.553948  0  2.382668  0
O  O422  1  0.43487358  0.24069086  0.11740864  1  -1.186286  0  -0.380657  -0.642646  0  2.260144  0
O  O423  1  0.41286475  0.33656638  0.16685805  1  -1.171609  0  -0.361926  -0.609643  0  2.216451  0
O  O424  1  0.53562666  0.54497772  0.01419002  1  -1.07465  0  -0.173071  -0.189872  0  2.56129  0
O  O425  1  0.30899513  0.67919033  0.81181728  1  -1.197857  0  -0.384842  -0.650254  0  2.344189  0
O  O426  1  0.48756163  0.68772804  0.78674490  1  -1.193825  0  -0.396402  -0.657397  0  2.322568  0
O  O427  1  0.30241852  0.54347320  0.99172330  1  -1.075863  0  -0.183649  -0.208323  0  2.555687  0
O  O428  1  0.56364952  0.15670761  0.18991038  1  -1.206752  0  -0.413937  -0.692505  0  2.397763  0
O  O429  1  0.72757528  0.13873098  0.21330332  1  -1.189399  0  -0.374263  -0.636222  0  2.300707  0
O  O430  1  0.54053281  0.10809926  0.99103585  1  -1.073608  0  -0.18264  -0.202115  0  2.538697  0
O  O431  1  0.27985836  0.23739192  0.25220905  1  -1.185042  0  -0.365031  -0.554146  0  2.382904  0
