# generated using pymatgen
data_ErH43C49N2Cl3O10
_symmetry_space_group_name_H-M   'P 1'
_cell_length_a   12.37492754
_cell_length_b   18.24148465
_cell_length_c   24.76619734
_cell_angle_alpha   90.00127477
_cell_angle_beta   89.99771565
_cell_angle_gamma   109.83479654
_symmetry_Int_Tables_number   1
_chemical_formula_structural   ErH43C49N2Cl3O10
_chemical_formula_sum   'Er4 H172 C196 N8 Cl12 O40'
_cell_volume   5258.98243005
_cell_formula_units_Z   4
loop_
 _symmetry_equiv_pos_site_id
 _symmetry_equiv_pos_as_xyz
  1  'x, y, z'
loop_
 _atom_site_type_symbol
 _atom_site_label
 _atom_site_symmetry_multiplicity
 _atom_site_fract_x
 _atom_site_fract_y
 _atom_site_fract_z
 _atom_site_occupancy
 _atom_site_pbe_bader_charge
 _atom_site_pbe_bader_spin_density
 _atom_site_pbe_cm5_charge
 _atom_site_pbe_ddec_charge
 _atom_site_pbe_ddec_spin_density
 _atom_site_pbe_ddec_sum_bond_order
 _atom_site_pbe_magmom
Er  Er0  1  0.22505123  0.77107467  0.78595235  1  2.172167  0  1.5229  2.018638  0  2.219908  0
Er  Er1  1  0.77491477  0.22888412  0.28595044  1  2.172002  0  1.523116  2.018594  0  2.220638  0
Er  Er2  1  0.54602083  0.77108277  0.71404146  1  2.170876  0  1.522397  2.01831  0  2.219148  0
Er  Er3  1  0.45395275  0.22887972  0.21403546  1  2.170815  0  1.522586  2.018406  0  2.2191  0
H  H4  1  0.06693148  0.88934145  0.75898467  1  0.109122  0  0.119442  0.088899  0  1.018078  0
H  H5  1  0.01003427  0.99803127  0.79865149  1  0.087416  0  0.092663  0.095356  0  1.058364  0
H  H6  1  0.10459547  0.06099157  0.88442873  1  0.113817  0  0.09606  0.088814  0  1.030281  0
H  H7  1  0.25708251  0.01527765  0.92531200  1  0.085954  0  0.10372  0.106334  0  1.013872  0
H  H8  1  0.30453711  0.90804465  0.87970588  1  0.100642  0  0.115803  0.080732  0  1.048694  0
H  H9  1  0.07469278  0.54585469  0.89721899  1  0.091412  0  0.111276  0.126522  0  1.017109  0
H  H10  1  0.06909784  0.80262744  0.93103417  1  0.108814  0  0.107943  0.127352  0  1.030825  0
H  H11  1  0.91689757  0.78929677  0.08869928  1  0.066959  0  0.102007  0.10903  0  1.013367  0
H  H12  1  0.90074646  0.65102807  0.09625134  1  0.075588  0  0.104067  0.107183  0  1.009054  0
H  H13  1  0.98400451  0.42425353  0.90280525  1  0.042427  0  0.094149  0.048267  0  1.017069  0
H  H14  1  0.11535052  0.43354625  0.93681478  1  0.09622  0  0.098935  0.064906  0  0.992293  0
H  H15  1  0.99419515  0.29291287  0.92227981  1  0.029996  0  0.090467  0.124857  0  1.014387  0
H  H16  1  0.01185561  0.31463175  0.99236393  1  0.040854  0  0.091926  0.129016  0  1.012711  0
H  H17  1  0.88019457  0.30700863  0.95956818  1  0.025111  0  0.090855  0.125307  0  1.010014  0
H  H18  1  0.66693710  0.35631029  0.09024347  1  0.102503  0  0.110985  0.128215  0  1.017296  0
H  H19  1  0.90967685  0.43501844  0.24624707  1  0.140608  0  0.114575  0.14226  0  1.012776  0
H  H20  1  0.19145901  0.63446255  0.19273171  1  0.092102  0  0.103952  0.115372  0  0.996731  0
H  H21  1  0.10352573  0.62445461  0.10209445  1  0.075673  0  0.099749  0.09741  0  1.039681  0
H  H22  1  0.72204657  0.33365525  0.00323341  1  0.033602  0  0.098639  0.054497  0  0.999479  0
H  H23  1  0.60048365  0.36478586  0.99621898  1  0.046555  0  0.092803  0.050954  0  1.018039  0
H  H24  1  0.65605515  0.32735728  0.90596607  1  0.026996  0  0.092504  0.127308  0  1.01044  0
H  H25  1  0.68225973  0.42926172  0.90739763  1  0.081824  0  0.089817  0.127444  0  1.030687  0
H  H26  1  0.79851390  0.39354306  0.91422564  1  0.053416  0  0.087506  0.121385  0  1.037786  0
H  H27  1  0.39736412  0.83179520  0.90850083  1  0.131814  0  0.113302  0.128144  0  1.042077  0
H  H28  1  0.70877959  0.98024143  0.79363795  1  0.105922  0  0.108566  0.135464  0  1.020909  0
H  H29  1  0.93058759  0.15468537  0.89946273  1  0.056885  0  0.093863  0.097951  0  1.042925  0
H  H30  1  0.80123448  0.09974224  0.97666840  1  0.085073  0  0.100659  0.103499  0  1.0126  0
H  H31  1  0.27074927  0.84564113  0.97550644  1  0.069262  0  0.098156  0.065717  0  0.995148  0
H  H32  1  0.34149777  0.77758644  0.98797661  1  0.045942  0  0.095879  0.052873  0  1.005651  0
H  H33  1  0.19070974  0.76345030  0.05789537  1  0.049486  0  0.086611  0.120484  0  1.041389  0
H  H34  1  0.32945609  0.79898986  0.08866969  1  0.050078  0  0.091555  0.125691  0  0.998492  0
H  H35  1  0.25256277  0.86337927  0.07555270  1  0.029457  0  0.088828  0.124646  0  1.017215  0
H  H36  1  0.96704145  0.64281169  0.74252262  1  0.110275  0  0.126857  0.049791  0  1.018054  0
H  H37  1  0.84986753  0.76624957  0.63199956  1  0.048762  0  0.106719  0.078353  0  0.995969  0
H  H38  1  0.92898484  0.81735018  0.68781922  1  0.063701  0  0.106115  0.078251  0  1.008036  0
H  H39  1  0.03876257  0.86493189  0.60345220  1  0.042608  0  0.083628  0.118079  0  1.017114  0
H  H40  1  0.11339400  0.81838784  0.64497662  1  0.083653  0  0.092877  0.138409  0  1.028775  0
H  H41  1  0.03602840  0.76936309  0.58714817  1  0.023324  0  0.083749  0.113677  0  1.022783  0
H  H42  1  0.84063822  0.58129952  0.68562728  1  0.056802  0  0.101368  0.071482  0  1.012017  0
H  H43  1  0.75106149  0.63193860  0.66120578  1  0.075959  0  0.100875  0.083984  0  1.027414  0
H  H44  1  0.80201842  0.56037532  0.58594485  1  0.035293  0  0.0915  0.133073  0  1.006533  0
H  H45  1  0.86561666  0.66109324  0.57409380  1  0.028746  0  0.084889  0.111242  0  1.03941  0
H  H46  1  0.95154743  0.60680881  0.59828637  1  0.064676  0  0.087808  0.124382  0  1.014813  0
H  H47  1  0.93307918  0.11063446  0.25898170  1  0.109582  0  0.11938  0.088824  0  1.01807  0
H  H48  1  0.99001521  0.00196557  0.29866134  1  0.087208  0  0.092704  0.095452  0  1.058197  0
H  H49  1  0.89545905  0.93902740  0.38444616  1  0.11418  0  0.095976  0.088712  0  1.030106  0
H  H50  1  0.74297349  0.98474595  0.42533565  1  0.086009  0  0.103769  0.106432  0  1.013639  0
H  H51  1  0.69547315  0.09194162  0.37969522  1  0.100819  0  0.115832  0.080907  0  1.048721  0
H  H52  1  0.92527365  0.45411783  0.39719516  1  0.091611  0  0.111292  0.1265  0  1.017269  0
H  H53  1  0.93089234  0.19734786  0.43103428  1  0.108291  0  0.107879  0.12722  0  1.030942  0
H  H54  1  0.08310945  0.21072233  0.58869523  1  0.066634  0  0.102107  0.109282  0  1.01343  0
H  H55  1  0.09925352  0.34899754  0.59623148  1  0.071931  0  0.104155  0.107305  0  1.009047  0
H  H56  1  0.01600257  0.57575752  0.40278420  1  0.042168  0  0.094114  0.048275  0  1.017044  0
H  H57  1  0.88465543  0.56645826  0.43680047  1  0.096484  0  0.098817  0.06471  0  0.992538  0
H  H58  1  0.00580371  0.70708970  0.42227404  1  0.03022  0  0.090546  0.124952  0  1.01414  0
H  H59  1  0.98814485  0.68536418  0.49235799  1  0.041083  0  0.091949  0.129039  0  1.012702  0
H  H60  1  0.11980781  0.69299561  0.45956031  1  0.02514  0  0.090863  0.12534  0  1.009998  0
H  H61  1  0.33304886  0.64367503  0.59023872  1  0.102702  0  0.110832  0.128093  0  1.01767  0
H  H62  1  0.09029624  0.56495789  0.74622326  1  0.14084  0  0.114595  0.142303  0  1.012628  0
H  H63  1  0.80851080  0.36550839  0.69270644  1  0.091199  0  0.103953  0.115417  0  0.996645  0
H  H64  1  0.89644993  0.37552329  0.60207001  1  0.074591  0  0.099699  0.097287  0  1.039617  0
H  H65  1  0.27797496  0.66635338  0.50322408  1  0.033507  0  0.098655  0.05451  0  0.999591  0
H  H66  1  0.39953526  0.63522819  0.49621103  1  0.046413  0  0.092834  0.050965  0  1.017991  0
H  H67  1  0.34396793  0.67267013  0.40595743  1  0.026327  0  0.092464  0.127244  0  1.010252  0
H  H68  1  0.31776568  0.57076571  0.40738178  1  0.080936  0  0.089813  0.127428  0  1.030932  0
H  H69  1  0.20150715  0.60647514  0.41421391  1  0.053643  0  0.087494  0.1213  0  1.037821  0
H  H70  1  0.60263476  0.16819553  0.40850095  1  0.131718  0  0.113317  0.128212  0  1.042074  0
H  H71  1  0.29119077  0.01975476  0.29366002  1  0.106165  0  0.10855  0.135467  0  1.020737  0
H  H72  1  0.06939979  0.84529708  0.39949309  1  0.056871  0  0.093931  0.09785  0  1.042975  0
H  H73  1  0.19875307  0.90025931  0.47669021  1  0.084787  0  0.100673  0.103594  0  1.012606  0
H  H74  1  0.72924867  0.15435516  0.47551067  1  0.059427  0  0.098165  0.065674  0  0.995166  0
H  H75  1  0.65851914  0.22241585  0.48798176  1  0.04597  0  0.095784  0.052625  0  1.005673  0
H  H76  1  0.80930873  0.23654799  0.55789017  1  0.054901  0  0.086654  0.120497  0  1.041482  0
H  H77  1  0.67057190  0.20102107  0.58868000  1  0.049712  0  0.091557  0.125673  0  0.998569  0
H  H78  1  0.74745447  0.13662100  0.57555921  1  0.028508  0  0.08885  0.124713  0  1.017201  0
H  H79  1  0.03292306  0.35717274  0.24252510  1  0.110395  0  0.12685  0.049801  0  1.018087  0
H  H80  1  0.15014576  0.23376311  0.13199888  1  0.048936  0  0.106787  0.078418  0  0.996023  0
H  H81  1  0.07102082  0.18265451  0.18781404  1  0.063576  0  0.106153  0.078218  0  1.007985  0
H  H82  1  0.96125165  0.13507808  0.10344341  1  0.042621  0  0.083614  0.118069  0  1.017217  0
H  H83  1  0.88661058  0.18161919  0.14497332  1  0.083469  0  0.092861  0.138489  0  1.028756  0
H  H84  1  0.96399688  0.23065832  0.08714574  1  0.023238  0  0.083749  0.113675  0  1.022616  0
H  H85  1  0.15934504  0.41870688  0.18563470  1  0.056575  0  0.101331  0.071512  0  1.012055  0
H  H86  1  0.24893426  0.36807272  0.16120938  1  0.07587  0  0.10092  0.084037  0  1.027453  0
H  H87  1  0.19800451  0.43964607  0.08595831  1  0.035179  0  0.091446  0.13302  0  1.006753  0
H  H88  1  0.13440051  0.33893091  0.07408992  1  0.028106  0  0.08495  0.111324  0  1.039273  0
H  H89  1  0.04846811  0.39321915  0.09828267  1  0.065189  0  0.087807  0.124341  0  1.014979  0
H  H90  1  0.82253137  0.88931157  0.74109873  1  0.137055  0  0.119636  0.089644  0  1.017573  0
H  H91  1  0.98820997  0.99798368  0.70142374  1  0.066698  0  0.092811  0.095355  0  1.057843  0
H  H92  1  0.95671940  0.06090584  0.61561150  1  0.080118  0  0.095898  0.088826  0  1.030014  0
H  H93  1  0.75847077  0.01528099  0.57474813  1  0.081264  0  0.103686  0.106311  0  1.014106  0
H  H94  1  0.60367290  0.90813611  0.62039017  1  0.107911  0  0.115632  0.080263  0  1.048603  0
H  H95  1  0.47077185  0.54589583  0.60252668  1  0.090917  0  0.11108  0.126313  0  1.017269  0
H  H96  1  0.73347222  0.80267532  0.56899134  1  0.11635  0  0.10793  0.127649  0  1.030926  0
H  H97  1  0.87284289  0.78954329  0.41142064  1  0.071459  0  0.102245  0.109086  0  1.014567  0
H  H98  1  0.75090499  0.65121458  0.40380147  1  0.075871  0  0.104338  0.107677  0  1.008617  0
H  H99  1  0.44031134  0.42445646  0.59694499  1  0.050987  0  0.094087  0.048305  0  1.016385  0
H  H100  1  0.31814478  0.43357049  0.56293622  1  0.068747  0  0.098871  0.065028  0  0.991749  0
H  H101  1  0.29896154  0.29302835  0.57757699  1  0.038791  0  0.090676  0.124653  0  1.014027  0
H  H102  1  0.30297206  0.31458262  0.50746220  1  0.040731  0  0.092203  0.129135  0  1.013192  0
H  H103  1  0.42711725  0.30718548  0.54031415  1  0.019196  0  0.090948  0.125629  0  1.008762  0
H  H104  1  0.68961284  0.35642308  0.40960434  1  0.128544  0  0.110896  0.128025  0  1.017535  0
H  H105  1  0.52550661  0.43514204  0.25363920  1  0.132116  0  0.114399  0.142138  0  1.012727  0
H  H106  1  0.44383826  0.63483280  0.30714321  1  0.078875  0  0.103876  0.115038  0  0.996538  0
H  H107  1  0.52135073  0.62455961  0.39783573  1  0.072893  0  0.099791  0.097584  0  1.039247  0
H  H108  1  0.61218042  0.33377443  0.49649150  1  0.049215  0  0.09867  0.054469  0  0.999964  0
H  H109  1  0.76490293  0.36501433  0.50347395  1  0.05169  0  0.092654  0.050595  0  1.018612  0
H  H110  1  0.67189950  0.32743464  0.59375892  1  0.051239  0  0.092136  0.126862  0  1.010294  0
H  H111  1  0.74753031  0.42934146  0.59232761  1  0.057089  0  0.090148  0.127591  0  1.0314  0
H  H112  1  0.59557964  0.39357880  0.58550461  1  0.05055  0  0.087567  0.121427  0  1.037361  0
H  H113  1  0.43466591  0.83200702  0.59164318  1  0.12234  0  0.113083  0.12759  0  1.042228  0
H  H114  1  0.27181357  0.98043119  0.70653124  1  0.108272  0  0.108577  0.135565  0  1.020994  0
H  H115  1  0.22404907  0.15475806  0.60074932  1  0.066525  0  0.094117  0.098611  0  1.040924  0
H  H116  1  0.29834852  0.09981971  0.52350615  1  0.082174  0  0.100761  0.103706  0  1.01267  0
H  H117  1  0.57522216  0.84589124  0.52466471  1  0.067175  0  0.098557  0.065789  0  0.995863  0
H  H118  1  0.43635331  0.77790896  0.51218078  1  0.023118  0  0.095742  0.052689  0  1.004745  0
H  H119  1  0.57296900  0.76364100  0.44234137  1  0.021663  0  0.086904  0.120928  0  1.041036  0
H  H120  1  0.46986509  0.79917250  0.41150065  1  0.013099  0  0.091425  0.125566  0  0.99973  0
H  H121  1  0.61118780  0.86353130  0.42459302  1  0.021933  0  0.088779  0.124377  0  1.01904  0
H  H122  1  0.67539471  0.64276326  0.75777575  1  0.11035  0  0.126463  0.049543  0  1.017874  0
H  H123  1  0.91690266  0.76644205  0.86787523  1  0.052792  0  0.106958  0.0791  0  0.995068  0
H  H124  1  0.88876615  0.81738053  0.81199936  1  0.058787  0  0.106498  0.078573  0  1.007654  0
H  H125  1  0.82726619  0.86543599  0.89639121  1  0.028117  0  0.08367  0.117931  0  1.017071  0
H  H126  1  0.70582892  0.81893606  0.85497712  1  0.081302  0  0.092892  0.138155  0  1.029236  0
H  H127  1  0.73415462  0.76998715  0.91284684  1  0.026612  0  0.083721  0.113328  0  1.022446  0
H  H128  1  0.74037745  0.58142781  0.81467554  1  0.063387  0  0.101306  0.071769  0  1.011503  0
H  H129  1  0.88068835  0.63198396  0.83900893  1  0.105319  0  0.100633  0.084274  0  1.027163  0
H  H130  1  0.75810184  0.56075301  0.91436753  1  0.04918  0  0.091578  0.133396  0  1.006061  0
H  H131  1  0.79556944  0.66152052  0.92608597  1  0.01824  0  0.085051  0.111427  0  1.039842  0
H  H132  1  0.65524097  0.60733377  0.90196372  1  0.029286  0  0.087902  0.125018  0  1.013664  0
H  H133  1  0.17741389  0.11064546  0.24108661  1  0.137013  0  0.119504  0.089513  0  1.017799  0
H  H134  1  0.01173054  0.00199146  0.20140708  1  0.066252  0  0.092794  0.095478  0  1.057615  0
H  H135  1  0.04323230  0.93908448  0.11558416  1  0.079196  0  0.095855  0.088804  0  1.030046  0
H  H136  1  0.24149578  0.98471636  0.07472364  1  0.082634  0  0.103714  0.106394  0  1.013869  0
H  H137  1  0.39627953  0.09184028  0.12039074  1  0.107826  0  0.115686  0.080387  0  1.048502  0
H  H138  1  0.52922936  0.45407508  0.10255234  1  0.090951  0  0.111005  0.126187  0  1.017279  0
H  H139  1  0.26651704  0.19729863  0.06898856  1  0.115958  0  0.107897  0.12762  0  1.030885  0
H  H140  1  0.12715295  0.21047254  0.91142702  1  0.070405  0  0.102267  0.109121  0  1.01446  0
H  H141  1  0.24911802  0.34879940  0.90381575  1  0.074992  0  0.10427  0.107714  0  1.008874  0
H  H142  1  0.55968717  0.57553886  0.09695791  1  0.05128  0  0.09414  0.048374  0  1.016493  0
H  H143  1  0.68187785  0.56643369  0.06295745  1  0.068999  0  0.098922  0.065082  0  0.991716  0
H  H144  1  0.70103092  0.70696146  0.07759207  1  0.038573  0  0.090646  0.124562  0  1.014025  0
H  H145  1  0.69704158  0.68541092  0.00747620  1  0.040001  0  0.092166  0.129187  0  1.013249  0
H  H146  1  0.57288468  0.69280441  0.04032025  1  0.019478  0  0.090934  0.12561  0  1.008915  0
H  H147  1  0.31039647  0.64356767  0.90961094  1  0.128604  0  0.110971  0.128229  0  1.017329  0
H  H148  1  0.47446928  0.56482332  0.75365335  1  0.132396  0  0.114479  0.142249  0  1.012614  0
H  H149  1  0.55617791  0.36514726  0.80715729  1  0.079455  0  0.103957  0.115331  0  0.996393  0
H  H150  1  0.47868436  0.37542749  0.89784789  1  0.072493  0  0.099732  0.097366  0  1.039438  0
H  H151  1  0.38782690  0.66624720  0.99649733  1  0.049007  0  0.098645  0.054356  0  0.999989  0
H  H152  1  0.23510408  0.63498148  0.00346807  1  0.051833  0  0.092698  0.050696  0  1.018557  0
H  H153  1  0.32808250  0.67259501  0.09375301  1  0.051104  0  0.092205  0.126926  0  1.010305  0
H  H154  1  0.25248325  0.57068643  0.09233729  1  0.057325  0  0.090049  0.127508  0  1.031596  0
H  H155  1  0.40443155  0.60646589  0.08552235  1  0.050639  0  0.087461  0.121449  0  1.03739  0
H  H156  1  0.56532585  0.16799172  0.09164485  1  0.122614  0  0.113131  0.127609  0  1.042185  0
H  H157  1  0.72817439  0.01956209  0.20651148  1  0.108702  0  0.108448  0.135179  0  1.021072  0
H  H158  1  0.77594842  0.84523905  0.10071268  1  0.065613  0  0.094074  0.098622  0  1.040892  0
H  H159  1  0.70165517  0.90018395  0.02347957  1  0.081412  0  0.100726  0.103804  0  1.012672  0
H  H160  1  0.42481286  0.15415264  0.02466169  1  0.067714  0  0.098586  0.065838  0  0.995945  0
H  H161  1  0.56368685  0.22212543  0.01217934  1  0.022191  0  0.095735  0.052564  0  1.004468  0
H  H162  1  0.42708163  0.23640205  0.94234582  1  0.021602  0  0.086882  0.120902  0  1.041183  0
H  H163  1  0.53016944  0.20086898  0.91149398  1  0.012882  0  0.091478  0.125502  0  0.999958  0
H  H164  1  0.38884652  0.13652317  0.92458892  1  0.022538  0  0.088711  0.124228  0  1.018648  0
H  H165  1  0.32456806  0.35721206  0.25775182  1  0.11062  0  0.126447  0.049618  0  1.017922  0
H  H166  1  0.08311240  0.23358427  0.36788397  1  0.052796  0  0.106915  0.079011  0  0.995015  0
H  H167  1  0.11120697  0.18261766  0.31200711  1  0.058916  0  0.106445  0.078421  0  1.007738  0
H  H168  1  0.17275161  0.13458255  0.39639411  1  0.028544  0  0.083664  0.117859  0  1.017283  0
H  H169  1  0.29418045  0.18107843  0.35496827  1  0.081334  0  0.09295  0.138232  0  1.029234  0
H  H170  1  0.26586289  0.23004152  0.41284219  1  0.026296  0  0.083671  0.11325  0  1.022504  0
H  H171  1  0.25964833  0.41857916  0.31466643  1  0.063267  0  0.101378  0.071845  0  1.011369  0
H  H172  1  0.11932923  0.36803148  0.33900300  1  0.105411  0  0.100638  0.084232  0  1.027127  0
H  H173  1  0.24191231  0.43926112  0.41435790  1  0.049044  0  0.091663  0.133415  0  1.00604  0
H  H174  1  0.20443791  0.33849318  0.42607988  1  0.018648  0  0.085057  0.111456  0  1.03989  0
H  H175  1  0.34476626  0.39267261  0.40196056  1  0.029214  0  0.087902  0.12497  0  1.013711  0
C  C176  1  0.10658181  0.91933944  0.79578226  1  0.501005  0  0.048517  0.101336  0  3.96004  0
C  C177  1  0.07523879  0.97934953  0.81807313  1  -0.065258  0  -0.092549  -0.13818  0  3.992196  0
C  C178  1  0.12853538  0.01480888  0.86545912  1  -0.040174  0  -0.074259  -0.029721  0  3.986219  0
C  C179  1  0.21281413  0.98957188  0.88827276  1  -0.06708  0  -0.089514  -0.14234  0  3.995344  0
C  C180  1  0.23906208  0.92927539  0.86335498  1  0.493339  0  0.049375  0.112105  0  3.944756  0
C  C181  1  0.96523387  0.56549318  0.02165599  1  0.03735  0  -0.014718  -0.069878  0  3.973616  0
C  C182  1  0.00230076  0.53033748  0.97846702  1  0.493747  0  0.090782  0.216345  0  4.057974  0
C  C183  1  0.04777513  0.57316291  0.93131797  1  -0.038081  0  -0.093956  -0.219419  0  3.978662  0
C  C184  1  0.06051273  0.65129763  0.92737117  1  -0.009707  0  -0.00969  -0.04062  0  3.945938  0
C  C185  1  0.03154893  0.76893067  0.96676321  1  0.024338  0  -0.096759  -0.207112  0  3.975144  0
C  C186  1  0.99154144  0.80269984  0.00839241  1  -0.005426  0  0.004662  0.139208  0  4.082755  0
C  C187  1  0.94589246  0.76073397  0.05590042  1  -0.051634  0  -0.098139  -0.157135  0  4.034786  0
C  C188  1  0.93770614  0.68378889  0.05999578  1  0.027135  0  -0.088127  -0.112605  0  3.989012  0
C  C189  1  0.97625773  0.64554161  0.01786911  1  -0.069141  0  -0.007017  0.028788  0  3.994162  0
C  C190  1  0.02552108  0.68993670  0.97047454  1  0.020664  0  -0.007193  0.052382  0  3.985029  0
C  C191  1  0.11265251  0.69339141  0.87678107  1  1.561727  0  0.189341  0.571275  0  4.238737  0
C  C192  1  0.02108069  0.41266666  0.94100513  1  0.380497  0  -0.064617  0.085338  0  3.891358  0
C  C193  1  0.97391779  0.32682582  0.95487270  1  -0.046359  0  -0.244199  -0.392497  0  3.953936  0
C  C194  1  0.90716906  0.51580223  0.06784290  1  0.068007  0  -0.017665  -0.075797  0  3.99028  0
C  C195  1  0.80318602  0.45630373  0.05772280  1  0.444331  0  0.082289  0.199944  0  4.097751  0
C  C196  1  0.74831709  0.40241876  0.09830645  1  -0.031153  0  -0.096529  -0.218989  0  3.994407  0
C  C197  1  0.79673473  0.40599319  0.14901099  1  0.033987  0  -0.007738  -0.045098  0  3.91572  0
C  C198  1  0.95136864  0.47587056  0.21436604  1  -0.014598  0  -0.094552  -0.204411  0  3.943476  0
C  C199  1  0.05352357  0.53511531  0.22434229  1  -0.008954  0  0.002607  0.138112  0  4.090627  0
C  C200  1  0.11008287  0.58886748  0.18377357  1  -0.011717  0  -0.100331  -0.157875  0  4.031268  0
C  C201  1  0.06093002  0.58269333  0.13334721  1  -0.109122  0  -0.092146  -0.115743  0  4.001554  0
C  C202  1  0.95574898  0.52286857  0.12062207  1  -0.009129  0  -0.006569  0.034755  0  3.981778  0
C  C203  1  0.90096933  0.46729420  0.16208029  1  0.016722  0  -0.00494  0.064287  0  3.961176  0
C  C204  1  0.73662887  0.34099414  0.18729146  1  1.578303  0  0.234564  0.662207  0  4.140059  0
C  C205  1  0.69155872  0.37837784  0.98529684  1  0.412515  0  -0.067263  0.08731  0  3.894388  0
C  C206  1  0.70835065  0.38255489  0.92468910  1  -0.104763  0  -0.249395  -0.403079  0  3.949946  0
C  C207  1  0.60234087  0.98002768  0.97357418  1  0.070089  0  -0.014752  -0.065383  0  4.001253  0
C  C208  1  0.50257352  0.91596581  0.96625379  1  0.49346  0  0.084063  0.206871  0  4.078104  0
C  C209  1  0.47632900  0.88082085  0.91503677  1  -0.093744  0  -0.098535  -0.229243  0  3.996991  0
C  C210  1  0.54858817  0.90874759  0.87124353  1  -0.025417  0  -0.008515  -0.053659  0  3.921674  0
C  C211  1  0.72810595  0.00630849  0.83352608  1  0.044936  0  -0.096577  -0.198883  0  3.936159  0
C  C212  1  0.82454258  0.07069247  0.84221289  1  0.001889  0  0.001748  0.14493  0  4.074049  0
C  C213  1  0.85276912  0.10455720  0.89392773  1  -0.047292  0  -0.10719  -0.16494  0  4.056332  0
C  C214  1  0.78068844  0.07389441  0.93662187  1  0.005085  0  -0.091802  -0.110113  0  3.996507  0
C  C215  1  0.67846868  0.00872751  0.92966529  1  -0.031152  0  -0.004301  0.041056  0  3.98345  0
C  C216  1  0.65258658  0.97332307  0.87719105  1  0.004839  0  -0.002219  0.069332  0  3.959343  0
C  C217  1  0.50890515  0.86786587  0.81860208  1  1.609629  0  0.23884  0.667327  0  4.121358  0
C  C218  1  0.32603497  0.82922447  0.00452140  1  0.396886  0  -0.068508  0.087814  0  3.895369  0
C  C219  1  0.27162192  0.81283557  0.05992152  1  -0.077975  0  -0.247104  -0.39573  0  3.958954  0
C  C220  1  0.97907067  0.70098268  0.72576667  1  1.380986  0  0.183496  0.335127  0  4.097556  0
C  C221  1  0.92854309  0.77599788  0.65558745  1  0.302148  0  -0.057714  0.006649  0  3.876902  0
C  C222  1  0.03578843  0.80873981  0.62063688  1  -0.100756  0  -0.248037  -0.387606  0  3.923041  0
C  C223  1  0.83829679  0.62889732  0.65897604  1  0.28581  0  -0.064083  -0.026669  0  3.923873  0
C  C224  1  0.86702670  0.61372559  0.60112823  1  -0.075577  0  -0.245809  -0.375422  0  3.920938  0
C  C225  1  0.89342501  0.08064920  0.29578120  1  0.500835  0  0.048343  0.101002  0  3.960511  0
C  C226  1  0.92479330  0.02065282  0.31807570  1  -0.063572  0  -0.092563  -0.138168  0  3.992012  0
C  C227  1  0.87151971  0.98520984  0.36547496  1  -0.042515  0  -0.074069  -0.029379  0  3.985573  0
C  C228  1  0.78722982  0.01044598  0.38828559  1  -0.066203  0  -0.089639  -0.142624  0  3.994864  0
C  C229  1  0.76095551  0.07071649  0.36334994  1  0.492582  0  0.049324  0.111809  0  3.945002  0
C  C230  1  0.03476685  0.43451394  0.52162912  1  0.037115  0  -0.014605  -0.069864  0  3.973851  0
C  C231  1  0.99767609  0.46966235  0.47844805  1  0.495296  0  0.090862  0.21667  0  4.058199  0
C  C232  1  0.95221488  0.42682988  0.43129760  1  -0.038913  0  -0.09396  -0.21951  0  3.978416  0
C  C233  1  0.93947553  0.34869103  0.42735825  1  -0.01222  0  -0.009637  -0.040443  0  3.945227  0
C  C234  1  0.96845686  0.23106376  0.46675586  1  0.024829  0  -0.096723  -0.207041  0  3.975146  0
C  C235  1  0.00845659  0.19730303  0.50839125  1  -0.005607  0  0.004574  0.139219  0  4.08272  0
C  C236  1  0.05409966  0.23927594  0.55589985  1  -0.051134  0  -0.098285  -0.15757  0  4.034803  0
C  C237  1  0.06229984  0.31622516  0.55998136  1  0.03025  0  -0.088217  -0.11277  0  3.988925  0
C  C238  1  0.02373308  0.35445964  0.51785286  1  -0.068783  0  -0.006967  0.028989  0  3.994318  0
C  C239  1  0.97445168  0.31005369  0.47046715  1  0.022264  0  -0.007259  0.052203  0  3.985173  0
C  C240  1  0.88732391  0.30658491  0.37677133  1  1.563332  0  0.189478  0.571626  0  4.239238  0
C  C241  1  0.97893054  0.58733617  0.44098807  1  0.380313  0  -0.064606  0.085446  0  3.891373  0
C  C242  1  0.02608583  0.67317369  0.45486476  1  -0.046708  0  -0.244371  -0.392723  0  3.953699  0
C  C243  1  0.09281391  0.48420260  0.56781610  1  0.068031  0  -0.017759  -0.075724  0  3.990585  0
C  C244  1  0.19681381  0.54369281  0.55770741  1  0.444573  0  0.082218  0.19951  0  4.09805  0
C  C245  1  0.25166907  0.59757307  0.59829771  1  -0.030723  0  -0.096406  -0.218738  0  3.994975  0
C  C246  1  0.20324815  0.59400340  0.64900034  1  0.03364  0  -0.007665  -0.045244  0  3.916156  0
C  C247  1  0.04861541  0.52411292  0.71433916  1  -0.014141  0  -0.094622  -0.204443  0  3.943763  0
C  C248  1  0.94645746  0.46487180  0.72431873  1  -0.008305  0  0.002508  0.137875  0  4.090389  0
C  C249  1  0.88989668  0.41110859  0.68375065  1  -0.011769  0  -0.100425  -0.15826  0  4.031392  0
C  C250  1  0.93904566  0.41729605  0.63332100  1  -0.107983  0  -0.09192  -0.115151  0  4.001171  0
C  C251  1  0.04424321  0.47711948  0.62059572  1  -0.011194  0  -0.006564  0.034559  0  3.981666  0
C  C252  1  0.09901902  0.53269441  0.66205779  1  0.018289  0  -0.004827  0.064474  0  3.961444  0
C  C253  1  0.26336725  0.65899947  0.68728108  1  1.578504  0  0.23456  0.662182  0  4.139695  0
C  C254  1  0.30845734  0.62163198  0.48528646  1  0.412744  0  -0.067258  0.087272  0  3.894771  0
C  C255  1  0.29167029  0.61746636  0.42467858  1  -0.103605  0  -0.249317  -0.402889  0  3.950222  0
C  C256  1  0.39765245  0.01998491  0.47358848  1  0.069596  0  -0.014823  -0.065518  0  4.001341  0
C  C257  1  0.49741874  0.08404027  0.46626028  1  0.493342  0  0.084173  0.207024  0  4.078412  0
C  C258  1  0.52366001  0.11918512  0.41504332  1  -0.093057  0  -0.098602  -0.229373  0  3.997302  0
C  C259  1  0.45141204  0.09124148  0.37125348  1  -0.02572  0  -0.008681  -0.054066  0  3.922103  0
C  C260  1  0.27187453  0.99369814  0.33355039  1  0.045375  0  -0.096707  -0.199204  0  3.936411  0
C  C261  1  0.17544198  0.92931078  0.34223605  1  0.002846  0  0.001724  0.144764  0  4.073682  0
C  C262  1  0.14722281  0.89543508  0.39395332  1  -0.047325  0  -0.106982  -0.16435  0  4.055553  0
C  C263  1  0.21929971  0.92611652  0.43664491  1  0.004473  0  -0.091924  -0.110515  0  3.996558  0
C  C264  1  0.32152629  0.99128624  0.42968252  1  -0.031675  0  -0.004296  0.041034  0  3.983702  0
C  C265  1  0.34739466  0.02668881  0.37720928  1  0.004545  0  -0.001991  0.069906  0  3.958954  0
C  C266  1  0.49109485  0.13210793  0.31861191  1  1.608578  0  0.239244  0.668098  0  4.121314  0
C  C267  1  0.67396557  0.17077310  0.50452994  1  0.406175  0  -0.068281  0.088396  0  3.895472  0
C  C268  1  0.72839404  0.18716449  0.55992601  1  -0.081559  0  -0.247194  -0.395873  0  3.959264  0
C  C269  1  0.02088832  0.29901551  0.22575027  1  1.380676  0  0.183736  0.335455  0  4.096969  0
C  C270  1  0.07145907  0.22400113  0.15558133  1  0.301809  0  -0.057804  0.006713  0  3.876673  0
C  C271  1  0.96421661  0.19126747  0.12062855  1  -0.100398  0  -0.247938  -0.387617  0  3.922824  0
C  C272  1  0.16169494  0.37111048  0.15897699  1  0.286026  0  -0.06408  -0.026741  0  3.923892  0
C  C273  1  0.13298110  0.38629542  0.10112839  1  -0.075217  0  -0.24581  -0.375373  0  3.921032  0
C  C274  1  0.81290543  0.91931658  0.70429811  1  0.422679  0  0.048515  0.100737  0  3.959923  0
C  C275  1  0.90430634  0.97931135  0.68200804  1  -0.005169  0  -0.092954  -0.137633  0  3.992091  0
C  C276  1  0.88655774  0.01475846  0.63459617  1  -0.032898  0  -0.073899  -0.030103  0  3.986312  0
C  C277  1  0.77703347  0.98956011  0.61177697  1  -0.063577  0  -0.089805  -0.142922  0  3.997275  0
C  C278  1  0.69040992  0.92933599  0.63671496  1  0.521837  0  0.04993  0.113805  0  3.94415  0
C  C279  1  0.60055599  0.56560675  0.47824203  1  0.036027  0  -0.015329  -0.070192  0  3.973195  0
C  C280  1  0.52800984  0.53046134  0.52132781  1  0.505001  0  0.090794  0.216625  0  4.058725  0
C  C281  1  0.52519457  0.57323435  0.56849570  1  -0.034079  0  -0.09402  -0.219357  0  3.980701  0
C  C282  1  0.59058519  0.65136119  0.57253264  1  -0.006925  0  -0.009751  -0.040773  0  3.94595  0
C  C283  1  0.73745277  0.76902846  0.53325684  1  0.067948  0  -0.096921  -0.208049  0  3.975405  0
C  C284  1  0.81134069  0.80286740  0.49168439  1  -0.087204  0  0.004684  0.140164  0  4.082275  0
C  C285  1  0.81519059  0.76091904  0.44417692  1  -0.044622  0  -0.098192  -0.157049  0  4.035715  0
C  C286  1  0.74651601  0.68394940  0.44004553  1  -0.028015  0  -0.088497  -0.113589  0  3.99095  0
C  C287  1  0.66954002  0.64566269  0.48211341  1  0.0012  0  -0.006756  0.028577  0  3.994565  0
C  C288  1  0.66444581  0.69002071  0.52949857  1  0.005656  0  -0.007269  0.052633  0  3.98421  0
C  C289  1  0.58061365  0.69339144  0.62317187  1  1.548861  0  0.189976  0.572649  0  4.236281  0
C  C290  1  0.39160358  0.41276775  0.55875825  1  0.398418  0  -0.064984  0.083953  0  3.890958  0
C  C291  1  0.35311172  0.32690951  0.54495363  1  -0.048921  0  -0.244962  -0.392448  0  3.95256  0
C  C292  1  0.60909552  0.51596561  0.43203743  1  0.078471  0  -0.017515  -0.076411  0  3.98959  0
C  C293  1  0.65353631  0.45646454  0.44212081  1  0.408012  0  0.082712  0.201686  0  4.098037  0
C  C294  1  0.65441018  0.40255260  0.40154288  1  -0.054542  0  -0.096513  -0.219148  0  3.995016  0
C  C295  1  0.60948865  0.40607927  0.35085208  1  -0.019808  0  -0.008136  -0.047214  0  3.918734  0
C  C296  1  0.52482894  0.47603332  0.28551485  1  -0.003151  0  -0.0949  -0.205093  0  3.94442  0
C  C297  1  0.48219970  0.53539345  0.27553159  1  0.024754  0  0.003034  0.138838  0  4.090508  0
C  C298  1  0.47951318  0.58918234  0.31609097  1  -0.044333  0  -0.100425  -0.157782  0  4.030548  0
C  C299  1  0.52221342  0.58284257  0.36655484  1  -0.030153  0  -0.092139  -0.116109  0  4.001306  0
C  C300  1  0.56747486  0.52297092  0.37926638  1  0.007419  0  -0.006935  0.035062  0  3.98068  0
C  C301  1  0.56659717  0.46739686  0.33779893  1  0.003084  0  -0.004122  0.066011  0  3.961149  0
C  C302  1  0.60448323  0.34106024  0.31256716  1  1.618548  0  0.236166  0.66569  0  4.136996  0
C  C303  1  0.68737417  0.37852077  0.51442968  1  0.387437  0  -0.067292  0.087796  0  3.895725  0
C  C304  1  0.67476397  0.38261386  0.57502695  1  -0.097171  0  -0.249545  -0.402889  0  3.950061  0
C  C305  1  0.37772948  0.98016181  0.52658289  1  0.043757  0  -0.014713  -0.063729  0  3.997995  0
C  C306  1  0.41360063  0.91618296  0.53390530  1  0.457952  0  0.083577  0.206259  0  4.077312  0
C  C307  1  0.40467433  0.88100282  0.58510997  1  -0.076394  0  -0.09796  -0.228484  0  3.994369  0
C  C308  1  0.36028963  0.90891399  0.62888806  1  -0.00038  0  -0.008833  -0.054222  0  3.92147  0
C  C309  1  0.27837407  0.00645688  0.66663696  1  0.03088  0  -0.096662  -0.198577  0  3.93809  0
C  C310  1  0.24630460  0.07082111  0.65798246  1  -0.008231  0  0.001978  0.14448  0  4.075534  0
C  C311  1  0.25175383  0.10463276  0.60626421  1  -0.03315  0  -0.107503  -0.16504  0  4.053563  0
C  C312  1  0.29315707  0.07399471  0.56355614  1  0.003731  0  -0.0921  -0.111194  0  3.995131  0
C  C313  1  0.33028489  0.00885740  0.57048484  1  -0.023951  0  -0.00408  0.041307  0  3.983146  0
C  C314  1  0.32082425  0.97346203  0.62294863  1  0.001811  0  -0.002593  0.068928  0  3.959916  0
C  C315  1  0.35906709  0.86803833  0.68153166  1  1.593015  0  0.238781  0.667215  0  4.124026  0
C  C316  1  0.50353341  0.82952541  0.49564752  1  0.418079  0  -0.068558  0.088364  0  3.894937  0
C  C317  1  0.54151918  0.81304993  0.44025981  1  -0.004515  0  -0.24766  -0.396401  0  3.962094  0
C  C318  1  0.72177407  0.70101132  0.77438227  1  1.377044  0  0.184056  0.335496  0  4.096741  0
C  C319  1  0.84792694  0.77621667  0.84433989  1  0.299141  0  -0.058829  0.005105  0  3.876294  0
C  C320  1  0.77379284  0.80923890  0.87929539  1  -0.079641  0  -0.247805  -0.386451  0  3.922272  0
C  C321  1  0.79047470  0.62909202  0.84124754  1  0.256361  0  -0.064092  -0.027595  0  3.925173  0
C  C322  1  0.74662509  0.61411918  0.89911382  1  -0.048487  0  -0.245879  -0.376621  0  3.921049  0
C  C323  1  0.18707169  0.08065627  0.20429015  1  0.422939  0  0.04873  0.101133  0  3.95987  0
C  C324  1  0.09565480  0.02067286  0.18199849  1  -0.004224  0  -0.092996  -0.138059  0  3.991708  0
C  C325  1  0.11339464  0.98522978  0.13457828  1  -0.033614  0  -0.073593  -0.029731  0  3.985499  0
C  C326  1  0.22294145  0.01042432  0.11176633  1  -0.064305  0  -0.089848  -0.14301  0  3.996673  0
C  C327  1  0.30954480  0.07065402  0.13671246  1  0.52174  0  0.049805  0.113649  0  3.943861  0
C  C328  1  0.39946415  0.43439075  0.97825876  1  0.03573  0  -0.015312  -0.07005  0  3.972639  0
C  C329  1  0.47200608  0.46953413  0.02134437  1  0.505439  0  0.091078  0.216687  0  4.057726  0
C  C330  1  0.47482554  0.42674951  0.06851029  1  -0.03439  0  -0.094033  -0.219399  0  3.979781  0
C  C331  1  0.40940472  0.34862272  0.07254201  1  -0.00722  0  -0.009869  -0.040564  0  3.945669  0
C  C332  1  0.26253639  0.23095900  0.03326155  1  0.069353  0  -0.096874  -0.208069  0  3.974953  0
C  C333  1  0.18864541  0.19713202  0.99168528  1  -0.087576  0  0.004785  0.140356  0  4.08183  0
C  C334  1  0.18481569  0.23908732  0.94418302  1  -0.044133  0  -0.098332  -0.157226  0  4.03555  0
C  C335  1  0.25348431  0.31606215  0.94005920  1  -0.027009  0  -0.088337  -0.113543  0  3.991032  0
C  C336  1  0.33046675  0.35433776  0.98212616  1  0.001298  0  -0.006944  0.028266  0  3.994587  0
C  C337  1  0.33555458  0.30996438  0.02950312  1  0.005347  0  -0.007172  0.052649  0  3.983729  0
C  C338  1  0.41936217  0.30658207  0.12318034  1  1.548909  0  0.189733  0.571902  0  4.237101  0
C  C339  1  0.60840537  0.58722297  0.05877241  1  0.398555  0  -0.064939  0.083855  0  3.89108  0
C  C340  1  0.64688994  0.67308219  0.04496479  1  -0.047874  0  -0.244943  -0.392485  0  3.952797  0
C  C341  1  0.39093013  0.48403069  0.93205152  1  0.07939  0  -0.017581  -0.076627  0  3.989828  0
C  C342  1  0.34651935  0.54354005  0.94213635  1  0.40802  0  0.082903  0.202302  0  4.098404  0
C  C343  1  0.34560253  0.59743396  0.90155569  1  -0.055323  0  -0.096673  -0.219811  0  3.995637  0
C  C344  1  0.39048723  0.59388213  0.85085829  1  -0.018995  0  -0.008006  -0.046709  0  3.918503  0
C  C345  1  0.47516225  0.52393537  0.78552548  1  -0.003351  0  -0.095127  -0.205498  0  3.945028  0
C  C346  1  0.51778928  0.46457569  0.77554201  1  0.025529  0  0.003371  0.139398  0  4.090476  0
C  C347  1  0.52050431  0.41080017  0.81610611  1  -0.044737  0  -0.100627  -0.158473  0  4.030884  0
C  C348  1  0.47781283  0.41714935  0.86656972  1  -0.030759  0  -0.09204  -0.115603  0  4.001252  0
C  C349  1  0.43254490  0.47701651  0.87928154  1  0.005934  0  -0.007018  0.034804  0  3.98096  0
C  C350  1  0.43339968  0.53257370  0.83781135  1  0.003884  0  -0.004195  0.065885  0  3.96132  0
C  C351  1  0.39546039  0.65888550  0.81257473  1  1.618546  0  0.235997  0.665336  0  4.137574  0
C  C352  1  0.31263577  0.62148102  0.01442971  1  0.387181  0  -0.067319  0.087861  0  3.895515  0
C  C353  1  0.32523983  0.61741437  0.07502949  1  -0.09729  0  -0.249426  -0.402988  0  3.950274  0
C  C354  1  0.62226513  0.01985004  0.02656727  1  0.043526  0  -0.014639  -0.063629  0  3.99788  0
C  C355  1  0.58640458  0.08383831  0.03389467  1  0.456876  0  0.083479  0.206162  0  4.077174  0
C  C356  1  0.59533285  0.11900632  0.08510136  1  -0.077056  0  -0.097841  -0.228198  0  3.99396  0
C  C357  1  0.63967965  0.09106834  0.12887850  1  0.000336  0  -0.009025  -0.054236  0  3.921919  0
C  C358  1  0.72161797  0.99353820  0.16661353  1  0.033121  0  -0.096133  -0.197578  0  3.937123  0
C  C359  1  0.75369292  0.92917385  0.15795007  1  -0.006539  0  0.001935  0.144332  0  4.075478  0
C  C360  1  0.74825426  0.89537025  0.10622693  1  -0.033294  0  -0.107716  -0.165282  0  4.053093  0
C  C361  1  0.70685334  0.92602230  0.06352342  1  0.004609  0  -0.091961  -0.111154  0  3.995011  0
C  C362  1  0.66970749  0.99115213  0.07046241  1  -0.022793  0  -0.003899  0.041285  0  3.983512  0
C  C363  1  0.67917667  0.02654062  0.12292753  1  -0.000948  0  -0.002772  0.068503  0  3.960193  0
C  C364  1  0.64091322  0.13195344  0.18151064  1  1.594138  0  0.238765  0.666676  0  4.124758  0
C  C365  1  0.49650309  0.17051077  0.99564344  1  0.418426  0  -0.068487  0.088708  0  3.894695  0
C  C366  1  0.45852081  0.18699251  0.94026161  1  -0.004551  0  -0.247525  -0.396025  0  3.961898  0
C  C367  1  0.27820926  0.29897704  0.27437971  1  1.377172  0  0.183876  0.335187  0  4.09697  0
C  C368  1  0.15206423  0.22378719  0.34434789  1  0.298849  0  -0.058627  0.005319  0  3.875775  0
C  C369  1  0.22622152  0.19077650  0.37929411  1  -0.079831  0  -0.247798  -0.38634  0  3.922296  0
C  C370  1  0.20953907  0.37091937  0.34124268  1  0.256185  0  -0.064213  -0.02783  0  3.924795  0
C  C371  1  0.25338652  0.38589066  0.39910793  1  -0.048568  0  -0.245948  -0.376597  0  3.92118  0
N  N372  1  0.18592832  0.89343568  0.81824009  1  -1.264715  0  -0.371571  -0.335349  0  3.46687  0
N  N373  1  0.91839758  0.70148411  0.68148555  1  -1.183121  0  -0.267451  -0.054085  0  3.621847  0
N  N374  1  0.81408695  0.10656375  0.31823862  1  -1.264674  0  -0.371424  -0.334847  0  3.466896  0
N  N375  1  0.08160579  0.29851174  0.18148691  1  -1.182872  0  -0.267488  -0.054283  0  3.621477  0
N  N376  1  0.70766129  0.89347291  0.68182315  1  -1.262281  0  -0.371691  -0.336251  0  3.466532  0
N  N377  1  0.78318920  0.70164630  0.81860242  1  -1.193686  0  -0.267168  -0.053887  0  3.621819  0
N  N378  1  0.29233197  0.10652703  0.18182603  1  -1.261922  0  -0.371919  -0.336608  0  3.466268  0
N  N379  1  0.21680336  0.29835139  0.31860430  1  -1.19318  0  -0.267167  -0.053502  0  3.621243  0
Cl  Cl380  1  0.99671680  0.89874997  0.00271606  1  -0.240202  0  0.000168  -0.083964  0  1.551979  0
Cl  Cl381  1  0.11667252  0.54409913  0.28797525  1  -0.241358  0  -0.01586  -0.099213  0  1.48331  0
Cl  Cl382  1  0.91538590  0.11353637  0.78866596  1  -0.246789  0  -0.02675  -0.111799  0  1.488527  0
Cl  Cl383  1  0.00327496  0.10125399  0.50272594  1  -0.240146  0  0.000168  -0.083977  0  1.552045  0
Cl  Cl384  1  0.88329379  0.45589291  0.78795441  1  -0.241141  0  -0.015852  -0.099116  0  1.483078  0
Cl  Cl385  1  0.08458985  0.88645043  0.28868539  1  -0.24723  0  -0.026838  -0.111872  0  1.48806  0
Cl  Cl386  1  0.90212796  0.89894449  0.49741144  1  -0.228735  0  0.000117  -0.084259  0  1.552171  0
Cl  Cl387  1  0.42810736  0.54446047  0.21189304  1  -0.2396  0  -0.016314  -0.099673  0  1.481972  0
Cl  Cl388  1  0.19851578  0.11367473  0.71158014  1  -0.244501  0  -0.026735  -0.111728  0  1.488329  0
Cl  Cl389  1  0.09785691  0.10105500  0.99740328  1  -0.228778  0  0.00017  -0.084196  0  1.552021  0
Cl  Cl390  1  0.57188475  0.45551772  0.71189941  1  -0.23983  0  -0.016299  -0.099627  0  1.481748  0
Cl  Cl391  1  0.80149296  0.88632211  0.21155133  1  -0.246054  0  -0.026775  -0.111757  0  1.488185  0
O  O392  1  0.19232244  0.75996514  0.88077498  1  -1.18722  0  -0.383628  -0.64907  0  2.273233  0
O  O393  1  0.07839115  0.66225316  0.83116657  1  -1.177716  0  -0.361754  -0.614284  0  2.228762  0
O  O394  1  0.99010637  0.45386732  0.98467024  1  -1.074549  0  -0.173449  -0.189429  0  2.564017  0
O  O395  1  0.62815181  0.31698033  0.18699638  1  -1.165529  0  -0.385768  -0.656637  0  2.363707  0
O  O396  1  0.79942278  0.31305520  0.21547903  1  -1.193744  0  -0.398152  -0.664089  0  2.346584  0
O  O397  1  0.75804306  0.45355407  0.00710706  1  -1.066893  0  -0.18291  -0.207092  0  2.554304  0
O  O398  1  0.40127482  0.84500649  0.80996579  1  -1.192028  0  -0.416181  -0.698548  0  2.412673  0
O  O399  1  0.58221590  0.85648150  0.78689392  1  -1.189464  0  -0.378511  -0.646899  0  2.316742  0
O  O400  1  0.43363534  0.89215557  0.01044868  1  -1.077484  0  -0.182611  -0.201835  0  2.54261  0
O  O401  1  0.04558684  0.76176078  0.74788323  1  -1.191061  0  -0.368811  -0.563162  0  2.403294  0
O  O402  1  0.80766261  0.24000482  0.38077905  1  -1.187762  0  -0.383556  -0.649157  0  2.273606  0
O  O403  1  0.92154775  0.33776043  0.33116553  1  -1.178164  0  -0.361835  -0.614495  0  2.228871  0
O  O404  1  0.00992185  0.54614250  0.48464843  1  -1.075077  0  -0.173341  -0.18948  0  2.564309  0
O  O405  1  0.37184530  0.68301036  0.68699109  1  -1.165434  0  -0.385802  -0.656552  0  2.3637  0
O  O406  1  0.20059488  0.68697142  0.71545300  1  -1.193948  0  -0.398356  -0.664131  0  2.346161  0
O  O407  1  0.24196054  0.54645811  0.50709284  1  -1.067284  0  -0.182874  -0.206823  0  2.554363  0
O  O408  1  0.59872520  0.15493689  0.30998112  1  -1.191766  0  -0.416351  -0.698719  0  2.412676  0
O  O409  1  0.41786405  0.14356472  0.28689895  1  -1.188636  0  -0.378786  -0.647321  0  2.317307  0
O  O410  1  0.56636436  0.10785257  0.51044905  1  -1.076887  0  -0.182719  -0.201996  0  2.543253  0
O  O411  1  0.95433476  0.23823888  0.24785729  1  -1.190915  0  -0.369167  -0.563573  0  2.40333  0
O  O412  1  0.56787508  0.76007952  0.61925713  1  -1.184968  0  -0.384051  -0.649995  0  2.273034  0
O  O413  1  0.58365200  0.66214431  0.66874620  1  -1.172187  0  -0.361615  -0.614264  0  2.227122  0
O  O414  1  0.46375213  0.45398899  0.51508221  1  -1.07879  0  -0.172534  -0.188688  0  2.563358  0
O  O415  1  0.68893270  0.31702899  0.31286895  1  -1.193116  0  -0.386753  -0.657963  0  2.363663  0
O  O416  1  0.51378161  0.31323702  0.28434954  1  -1.20286  0  -0.398866  -0.665378  0  2.347138  0
O  O417  1  0.69589388  0.45369591  0.49272684  1  -1.067724  0  -0.1831  -0.208036  0  2.556759  0
O  O418  1  0.44380622  0.84513479  0.69016538  1  -1.200699  0  -0.415977  -0.698399  0  2.413035  0
O  O419  1  0.27439048  0.85667644  0.71323692  1  -1.179369  0  -0.37824  -0.646539  0  2.317189  0
O  O420  1  0.45896813  0.89250908  0.48972710  1  -1.070383  0  -0.182124  -0.201368  0  2.543741  0
O  O421  1  0.71620510  0.76173565  0.75211901  1  -1.182202  0  -0.368683  -0.563139  0  2.400758  0
O  O422  1  0.43215092  0.23990968  0.11924971  1  -1.184849  0  -0.383846  -0.649594  0  2.273195  0
O  O423  1  0.41637011  0.33785954  0.16875000  1  -1.172163  0  -0.361426  -0.613921  0  2.227081  0
O  O424  1  0.53628969  0.54600231  0.01509026  1  -1.079882  0  -0.172783  -0.188513  0  2.563207  0
O  O425  1  0.31100691  0.68290393  0.81286568  1  -1.192757  0  -0.386535  -0.657747  0  2.363745  0
O  O426  1  0.48616689  0.68678993  0.78436262  1  -1.203102  0  -0.399195  -0.665646  0  2.347388  0
O  O427  1  0.30414774  0.54630644  0.99273843  1  -1.06751  0  -0.183049  -0.20809  0  2.556597  0
O  O428  1  0.55621561  0.15489615  0.19012866  1  -1.201115  0  -0.416078  -0.698074  0  2.413656  0
O  O429  1  0.72555197  0.14335130  0.21323984  1  -1.180117  0  -0.378639  -0.646605  0  2.317636  0
O  O430  1  0.54104474  0.10751771  0.98972030  1  -1.070156  0  -0.182224  -0.201774  0  2.543981  0
O  O431  1  0.28383529  0.23825824  0.25213593  1  -1.182726  0  -0.368633  -0.563139  0  2.401159  0
