# generated using pymatgen
data_Mn2H41C43N7O9
_symmetry_space_group_name_H-M   'P 1'
_cell_length_a   15.12443119
_cell_length_b   16.41668385
_cell_length_c   18.00820362
_cell_angle_alpha   111.57820170
_cell_angle_beta   89.99989670
_cell_angle_gamma   89.99995356
_symmetry_Int_Tables_number   1
_chemical_formula_structural   Mn2H41C43N7O9
_chemical_formula_sum   'Mn8 H164 C172 N28 O36'
_cell_volume   4157.94574859
_cell_formula_units_Z   4
loop_
 _symmetry_equiv_pos_site_id
 _symmetry_equiv_pos_as_xyz
  1  'x, y, z'
loop_
 _atom_site_type_symbol
 _atom_site_label
 _atom_site_symmetry_multiplicity
 _atom_site_fract_x
 _atom_site_fract_y
 _atom_site_fract_z
 _atom_site_occupancy
 _atom_site_pbe_bader_charge
 _atom_site_pbe_bader_spin_density
 _atom_site_pbe_cm5_charge
 _atom_site_pbe_ddec_charge
 _atom_site_pbe_ddec_spin_density
 _atom_site_pbe_ddec_sum_bond_order
 _atom_site_pbe_magmom
Mn  Mn0  1  0.62839422  0.45542187  0.72793408  1  1.487593  4.547439  0.595256  0.88542  4.673124  2.368698  4.46
Mn  Mn1  1  0.12839539  0.04457007  0.77207209  1  1.487546  4.547453  0.595276  0.885443  4.673077  2.368632  4.46
Mn  Mn2  1  0.37159427  0.54457956  0.27207197  1  1.48754  4.547434  0.595251  0.885467  4.673214  2.368618  4.46
Mn  Mn3  1  0.87160765  0.95541894  0.22791978  1  1.487545  4.547459  0.595259  0.885457  4.673091  2.368608  4.46
Mn  Mn4  1  0.90990224  0.54656906  0.77368265  1  1.50276  4.552281  0.596824  0.941749  4.681349  2.334891  4.472
Mn  Mn5  1  0.40990844  0.95342571  0.72631686  1  1.502794  4.552284  0.596868  0.941807  4.681409  2.334874  4.472
Mn  Mn6  1  0.09008758  0.45342713  0.22632108  1  1.502768  4.552281  0.59683  0.941728  4.68142  2.334925  4.472
Mn  Mn7  1  0.59009593  0.04657902  0.27367809  1  1.502794  4.552258  0.596831  0.941746  4.681456  2.334939  4.472
H  H8  1  0.58529297  0.72310921  0.73778587  1  0.110316  0.000541  0.1005  0.104267  -5.1e-05  1.069136  0.0
H  H9  1  0.08529395  0.77689197  0.76221351  1  0.110303  0.000541  0.100502  0.104267  -5.1e-05  1.06915  0.0
H  H10  1  0.41470544  0.27689224  0.26221185  1  0.110225  0.000541  0.100496  0.10429  -5.1e-05  1.069158  0.0
H  H11  1  0.91470711  0.22310750  0.23778744  1  0.110195  0.000541  0.100486  0.104255  -5.1e-05  1.069154  0.0
H  H12  1  0.15139703  0.46440564  0.80076771  1  0.501887  0.000399  0.297417  0.260595  -5.4e-05  1.009825  0.0
H  H13  1  0.65139365  0.03559415  0.69923218  1  0.501433  0.000399  0.297426  0.260605  -5.4e-05  1.009761  0.0
H  H14  1  0.84860403  0.53559450  0.19923180  1  0.501905  0.000399  0.297408  0.260602  -5.4e-05  1.009792  0.0
H  H15  1  0.34860212  0.96440533  0.30076766  1  0.501893  0.000399  0.297404  0.260567  -5.4e-05  1.009886  0.0
H  H16  1  0.89279859  0.95772374  0.79225879  1  0.512331  0.00038  0.294959  0.263229  -6.4e-05  1.020535  0.0
H  H17  1  0.39279857  0.54227696  0.70774163  1  0.512339  0.00038  0.29494  0.263178  -6.4e-05  1.020621  0.0
H  H18  1  0.10720313  0.04227705  0.20774093  1  0.51234  0.00038  0.294964  0.263198  -6.4e-05  1.020589  0.0
H  H19  1  0.60720315  0.45772317  0.29226010  1  0.512348  0.00038  0.294972  0.263219  -6.4e-05  1.02057  0.0
H  H20  1  0.93999320  0.35992761  0.93375510  1  0.094895  0.000823  0.109218  0.121837  0.000416  0.990344  0.0
H  H21  1  0.43999274  0.14007566  0.56624441  1  0.094694  0.000823  0.109226  0.121815  0.000416  0.990334  0.0
H  H22  1  0.06000786  0.64007450  0.06624285  1  0.094704  0.000823  0.109234  0.121823  0.000416  0.990333  0.0
H  H23  1  0.56000700  0.85992776  0.43375398  1  0.094783  0.000823  0.109211  0.121809  0.000416  0.990335  0.0
H  H24  1  0.31290660  0.46510719  0.77929454  1  0.085898  0.000427  0.102724  0.110436  0.000165  1.02904  0.0
H  H25  1  0.81290516  0.03489234  0.72070834  1  0.085906  0.000427  0.102759  0.110494  0.000165  1.028992  0.0
H  H26  1  0.68709512  0.53489425  0.22070707  1  0.08593  0.000427  0.102753  0.110473  0.000165  1.029013  0.0
H  H27  1  0.18709524  0.96510517  0.27929305  1  0.085968  0.000427  0.10276  0.110481  0.000165  1.029018  0.0
H  H28  1  0.85946188  0.73934092  0.80192967  1  0.131851  8.9e-05  0.110162  0.123351  -3.9e-05  1.047537  0.0
H  H29  1  0.35946236  0.76066049  0.69807104  1  0.131839  8.9e-05  0.110157  0.12337  -3.8e-05  1.047511  0.0
H  H30  1  0.14053653  0.26065922  0.19806873  1  0.131801  8.9e-05  0.110146  0.123312  -3.9e-05  1.047527  0.0
H  H31  1  0.64053804  0.23934030  0.30192979  1  0.131863  8.9e-05  0.110158  0.123334  -3.8e-05  1.047531  0.0
H  H32  1  0.06945549  0.31149750  0.80895473  1  0.101843  0.00055  0.108901  0.094061  5.5e-05  1.026535  0.0
H  H33  1  0.56945663  0.18850438  0.69104543  1  0.101796  0.00055  0.108874  0.094022  5.5e-05  1.026546  0.0
H  H34  1  0.93054490  0.68850460  0.19104599  1  0.102033  0.00055  0.108863  0.093999  5.5e-05  1.026579  0.0
H  H35  1  0.43054575  0.81149640  0.30895540  1  0.101822  0.00055  0.108909  0.094088  5.5e-05  1.02652  0.0
H  H36  1  0.02343518  0.41590747  0.82952922  1  0.11892  0.000646  0.120813  0.114728  0.000361  0.998032  0.0
H  H37  1  0.52343381  0.08409450  0.67047048  1  0.118725  0.000646  0.120824  0.114722  0.000361  0.998045  0.0
H  H38  1  0.97656587  0.58409333  0.17046995  1  0.118724  0.000647  0.120825  0.114742  0.000361  0.998029  0.0
H  H39  1  0.47656461  0.91590826  0.32952935  1  0.118925  0.000646  0.120817  0.114745  0.000361  0.998061  0.0
H  H40  1  0.18205413  0.24715448  0.81454567  1  0.124712  -5.3e-05  0.108129  0.122138  -0.000369  1.041793  0.0
H  H41  1  0.68205390  0.25284461  0.68545338  1  0.124678  -5.3e-05  0.108097  0.122107  -0.000369  1.041826  0.0
H  H42  1  0.81794693  0.75284828  0.18545528  1  0.124688  -5.3e-05  0.1081  0.122124  -0.000369  1.04176  0.0
H  H43  1  0.31794716  0.74715094  0.31454513  1  0.124671  -5.3e-05  0.108099  0.122158  -0.000369  1.04174  0.0
H  H44  1  0.45001142  0.22174796  0.73192244  1  0.113061  0.000576  0.099478  0.101332  -1.1e-05  1.081038  0.0
H  H45  1  0.95000966  0.27825005  0.76807639  1  0.113124  0.000576  0.099485  0.101373  -1.1e-05  1.081037  0.0
H  H46  1  0.54998832  0.77825348  0.26807806  1  0.113055  0.000576  0.099497  0.101374  -1.1e-05  1.081057  0.0
H  H47  1  0.04998875  0.72174746  0.23192334  1  0.113088  0.000576  0.099489  0.101338  -1.1e-05  1.081007  0.0
H  H48  1  0.72906485  0.96011192  0.77173222  1  0.041681  0.000482  0.099587  0.106535  0.000167  1.03765  0.0
H  H49  1  0.22906479  0.53989035  0.72826898  1  0.041722  0.000482  0.099609  0.106603  0.000167  1.037626  0.0
H  H50  1  0.27093621  0.03989279  0.22827216  1  0.041787  0.000482  0.099569  0.106529  0.000167  1.037762  0.0
H  H51  1  0.77093627  0.46010848  0.27173064  1  0.041754  0.000482  0.099593  0.106559  0.000167  1.037732  0.0
H  H52  1  0.97370481  0.80898997  0.81600411  1  0.070247  0.000322  0.106701  0.093316  -0.000104  1.030155  0.0
H  H53  1  0.47370670  0.69100864  0.68399493  1  0.070255  0.000322  0.1067  0.093308  -0.000104  1.030139  0.0
H  H54  1  0.02629426  0.19100951  0.18399518  1  0.070259  0.000322  0.106707  0.093357  -0.000104  1.030114  0.0
H  H55  1  0.52629502  0.30899019  0.31600580  1  0.084094  0.00032  0.106708  0.093362  -0.000104  1.030166  0.0
H  H56  1  0.01291356  0.91739599  0.84441439  1  0.105184  0.000401  0.118415  0.109547  3.6e-05  1.000395  0.0
H  H57  1  0.51291420  0.58260139  0.65558327  1  0.105136  0.000401  0.118433  0.109552  3.5e-05  1.000345  0.0
H  H58  1  0.98708750  0.08260350  0.15558490  1  0.105159  0.000401  0.118402  0.109501  3.6e-05  1.00045  0.0
H  H59  1  0.48708818  0.41739678  0.34441724  1  0.105182  0.000401  0.118412  0.109536  3.5e-05  1.000441  0.0
H  H60  1  0.94261833  0.38866887  0.08014126  1  0.089156  0.001112  0.116654  0.084781  0.000366  0.99794  0.0
H  H61  1  0.44261912  0.11133345  0.41985775  1  0.08912  0.001112  0.116657  0.084803  0.000366  0.99792  0.0
H  H62  1  0.05738140  0.61133258  0.91985702  1  0.089131  0.001112  0.116651  0.084784  0.000366  0.997923  0.0
H  H63  1  0.55738194  0.88866865  0.58014075  1  0.089172  0.001112  0.116657  0.084781  0.000366  0.997929  0.0
H  H64  1  0.99081675  0.77284470  0.93184448  1  0.084571  0.000628  0.106753  0.117741  9.2e-05  1.022141  0.0
H  H65  1  0.49081290  0.72715584  0.56815574  1  0.084675  0.000628  0.106746  0.117753  9.2e-05  1.022095  0.0
H  H66  1  0.00918497  0.22715609  0.06815636  1  0.084648  0.000628  0.106779  0.117832  9.2e-05  1.022132  0.0
H  H67  1  0.50918749  0.27284495  0.43184454  1  0.084688  0.000628  0.106729  0.11776  9.2e-05  1.022083  0.0
H  H68  1  0.86254182  0.01522680  0.95496733  1  0.091587  0.000599  0.104435  0.108778  0.000321  1.021288  0.0
H  H69  1  0.36254044  0.48477331  0.54503290  1  0.091612  0.000599  0.104452  0.108838  0.000321  1.021248  0.0
H  H70  1  0.13745924  0.98477333  0.04503329  1  0.091653  0.000599  0.104419  0.108744  0.000321  1.021291  0.0
H  H71  1  0.63746128  0.51522617  0.45496638  1  0.091663  0.000599  0.104444  0.108783  0.000321  1.021293  0.0
H  H72  1  0.21515399  0.43400474  0.95298223  1  0.107565  0.000446  0.101315  0.105698  0.000201  1.060212  0.0
H  H73  1  0.71515421  0.06599561  0.54701775  1  0.107558  0.000446  0.101321  0.105728  0.000201  1.060183  0.0
H  H74  1  0.78484575  0.56599802  0.04701760  1  0.107634  0.000446  0.101327  0.105735  0.000201  1.060198  0.0
H  H75  1  0.28484420  0.93400518  0.45298309  1  0.107531  0.000446  0.101312  0.105739  0.000201  1.06015  0.0
H  H76  1  0.95353030  0.80482552  0.07578854  1  0.095789  0.00103  0.112202  0.078821  0.000385  1.026964  0.001
H  H77  1  0.45352638  0.69517676  0.42421214  1  0.095198  0.001029  0.112173  0.07883  0.000385  1.026988  0.001
H  H78  1  0.04647076  0.19517593  0.92421140  1  0.095743  0.001029  0.112178  0.078835  0.000385  1.026962  0.001
H  H79  1  0.54647203  0.30482534  0.57578914  1  0.095761  0.001029  0.112176  0.078803  0.000384  1.026985  0.001
H  H80  1  0.20809678  0.45308870  0.09684438  1  0.109467  0.001603  0.1181  0.085715  0.000817  1.027871  0.001
H  H81  1  0.70809758  0.04691071  0.40315456  1  0.10943  0.001603  0.118114  0.085733  0.000817  1.02785  0.001
H  H82  1  0.79190229  0.54691143  0.90315513  1  0.109422  0.001603  0.118109  0.085708  0.000818  1.027886  0.001
H  H83  1  0.29190215  0.95308812  0.59684506  1  0.109435  0.001603  0.118117  0.085682  0.000818  1.027958  0.001
H  H84  1  0.83067971  0.03750677  0.09746164  1  0.119228  0.001149  0.118324  0.090195  0.000322  1.003431  0.001
H  H85  1  0.33067759  0.46249506  0.40253960  1  0.119229  0.001149  0.118326  0.09022  0.000322  1.003459  0.001
H  H86  1  0.16932068  0.96249336  0.90253898  1  0.119236  0.001149  0.11832  0.090184  0.000322  1.003428  0.001
H  H87  1  0.66932347  0.53750638  0.59746035  1  0.119204  0.001149  0.118306  0.090189  0.000322  1.003479  0.001
H  H88  1  0.63643161  0.49047421  0.04497031  1  0.060942  0.000737  0.105905  0.116596  0.000408  0.9949  0.0
H  H89  1  0.13643109  0.00952597  0.45503066  1  0.060945  0.000737  0.105902  0.116571  0.000408  0.994955  0.0
H  H90  1  0.36357011  0.50952657  0.95503164  1  0.060965  0.000737  0.10588  0.116564  0.000408  0.99496  0.0
H  H91  1  0.86357063  0.99047482  0.54497017  1  0.060934  0.000737  0.10587  0.116541  0.000408  0.994976  0.0
H  H92  1  0.87070763  0.38638927  0.60904094  1  0.089257  0.001086  0.124187  0.043685  0.000238  1.032199  0.0
H  H93  1  0.37070715  0.11360298  0.89095441  1  0.089374  0.001086  0.124093  0.043491  0.000238  1.032293  0.0
H  H94  1  0.12928682  0.61359843  0.39095326  1  0.089453  0.001086  0.124123  0.043543  0.000238  1.032374  0.0
H  H95  1  0.62928597  0.88639846  0.10904665  1  0.089395  0.001086  0.124179  0.043667  0.000238  1.032221  0.0
H  H96  1  0.56715417  0.63906437  0.09303066  1  0.076073  8.7e-05  0.103784  0.103642  -1e-06  1.009965  0.0
H  H97  1  0.06715080  0.86093916  0.40697214  1  0.076085  8.7e-05  0.10382  0.103663  -1e-06  1.00997  0.0
H  H98  1  0.43284953  0.36093837  0.90697250  1  0.076104  8.7e-05  0.103793  0.103669  -1e-06  1.00988  0.0
H  H99  1  0.93285224  0.13906098  0.59302626  1  0.076086  8.7e-05  0.1038  0.103646  -1e-06  1.009939  0.0
H  H100  1  0.54679360  0.61359491  0.84655530  1  0.105418  0.001411  0.119939  0.092699  0.000774  0.993886  0.001
H  H101  1  0.04679538  0.88640830  0.65344594  1  0.105443  0.001411  0.119952  0.092707  0.000774  0.993941  0.001
H  H102  1  0.45320415  0.38640784  0.15344731  1  0.10541  0.00141  0.119949  0.09272  0.000774  0.99392  0.001
H  H103  1  0.95320501  0.11358987  0.34655235  1  0.105361  0.00141  0.119948  0.092715  0.000774  0.993943  0.001
H  H104  1  0.51706205  0.70060066  0.98869330  1  0.154052  0.000314  0.098071  0.095225  0.00015  1.101613  0.0
H  H105  1  0.01706156  0.79940390  0.51130955  1  0.154108  0.000314  0.098071  0.095255  0.00015  1.101592  0.0
H  H106  1  0.48293835  0.29940274  0.01131064  1  0.154092  0.000314  0.09806  0.09524  0.00015  1.101595  0.0
H  H107  1  0.98294148  0.20059427  0.48868818  1  0.154098  0.000314  0.09803  0.095156  0.00015  1.101661  0.0
H  H108  1  0.64249254  0.34442550  0.83534909  1  0.078899  0.000888  0.099323  0.147089  0.000581  1.028064  0.0
H  H109  1  0.14249450  0.15557562  0.66465070  1  0.078929  0.000887  0.099289  0.147027  0.00058  1.028114  0.0
H  H110  1  0.35750786  0.65557660  0.16465052  1  0.078893  0.000888  0.099313  0.147072  0.00058  1.028062  0.0
H  H111  1  0.85750458  0.84442386  0.33535080  1  0.078933  0.000887  0.099266  0.146954  0.00058  1.028209  0.0
H  H112  1  0.67074803  0.35626645  0.93532393  1  0.032771  0.000243  0.093048  0.139126  5.5e-05  1.009208  0.0
H  H113  1  0.17075088  0.14373331  0.56467647  1  0.032763  0.000243  0.093041  0.139117  5.5e-05  1.009207  0.0
H  H114  1  0.32925236  0.64373434  0.06467635  1  0.032746  0.000243  0.093046  0.139125  5.5e-05  1.009232  0.0
H  H115  1  0.82924952  0.85626682  0.43532525  1  0.032733  0.000243  0.093046  0.13913  5.5e-05  1.009274  0.0
H  H116  1  0.74450094  0.39225385  0.87733457  1  0.065733  0.000344  0.095189  0.137183  9.5e-05  1.013716  0.0
H  H117  1  0.24450237  0.10774645  0.62266479  1  0.065702  0.000344  0.095196  0.137202  9.5e-05  1.013748  0.0
H  H118  1  0.25550012  0.60774891  0.12266637  1  0.065726  0.000344  0.095175  0.137171  9.5e-05  1.013727  0.0
H  H119  1  0.75549869  0.89225433  0.37733715  1  0.065736  0.000343  0.095193  0.137155  9.5e-05  1.013733  0.0
H  H120  1  0.88582909  0.31834135  0.41430231  1  0.081509  0.000338  0.10432  0.12322  0.000182  0.994221  0.0
H  H121  1  0.38583450  0.18165648  0.08569305  1  0.08144  0.000338  0.104347  0.12326  0.000182  0.99422  0.0
H  H122  1  0.11417196  0.68165355  0.58569265  1  0.081567  0.000338  0.104297  0.123123  0.000182  0.994332  0.0
H  H123  1  0.61416788  0.81834562  0.91430767  1  0.081514  0.000338  0.104327  0.12318  0.000182  0.994232  0.0
H  H124  1  0.77317028  0.35066048  0.43546139  1  0.069839  0.000422  0.098408  0.112172  0.000228  1.029926  0.0
H  H125  1  0.27317576  0.14933948  0.06453820  1  0.069921  0.000422  0.098377  0.112148  0.000228  1.029942  0.0
H  H126  1  0.22682748  0.64933245  0.56453347  1  0.069735  0.000422  0.098395  0.112181  0.000228  1.029856  0.0
H  H127  1  0.72682464  0.85066523  0.93546563  1  0.069934  0.000422  0.098353  0.112112  0.000228  1.02985  0.0
H  H128  1  0.82989105  0.30033929  0.49447905  1  0.053238  0.000183  0.1093  0.122941  2.2e-05  0.993589  0.0
H  H129  1  0.32989397  0.19965666  0.00551743  1  0.053227  0.000183  0.10932  0.122978  2.2e-05  0.993562  0.0
H  H130  1  0.17011001  0.69965430  0.50551659  1  0.053266  0.000183  0.109324  0.122996  2.2e-05  0.993536  0.0
H  H131  1  0.67010775  0.80034413  0.99448341  1  0.053225  0.000183  0.109316  0.122991  2.2e-05  0.993509  0.0
H  H132  1  0.92665566  0.48100600  0.43826605  1  0.076716  0.000398  0.109019  0.132066  4.7e-05  0.974804  0.0
H  H133  1  0.42665795  0.01899372  0.06173433  1  0.076671  0.000398  0.109015  0.13206  4.7e-05  0.974834  0.0
H  H134  1  0.07334408  0.51899217  0.56173335  1  0.076715  0.000398  0.109027  0.132029  4.7e-05  0.97485  0.0
H  H135  1  0.57334244  0.98100837  0.93826917  1  0.076819  0.000398  0.108995  0.132053  4.7e-05  0.974807  0.0
H  H136  1  0.89547286  0.55998697  0.53383573  1  0.095868  0.000348  0.109419  0.126621  -7.6e-05  1.030595  0.0
H  H137  1  0.39547458  0.94000979  0.96616503  1  0.095838  0.000348  0.109424  0.126614  -7.6e-05  1.030604  0.0
H  H138  1  0.10452291  0.44000792  0.46616312  1  0.095756  0.000349  0.109446  0.12662  -7.6e-05  1.030597  0.0
H  H139  1  0.60452383  0.05999165  0.03383769  1  0.095738  0.000349  0.109426  0.126602  -7.6e-05  1.030581  0.0
H  H140  1  0.81326756  0.51023681  0.45928166  1  0.053332  0.000287  0.100133  0.110199  0.000168  1.013481  0.0
H  H141  1  0.31326949  0.98976307  0.04072009  1  0.05335  0.000287  0.100167  0.110241  0.000168  1.013425  0.0
H  H142  1  0.18673020  0.48975875  0.54071408  1  0.053392  0.000287  0.100156  0.110182  0.000168  1.013391  0.0
H  H143  1  0.68672893  0.01023706  0.95928497  1  0.053414  0.000287  0.100138  0.11017  0.000168  1.013422  0.0
H  H144  1  0.71455416  0.73279847  0.61644781  1  0.103857  7.6e-05  0.095261  0.101117  3.9e-05  1.064974  0.0
H  H145  1  0.21455489  0.76720382  0.88355397  1  0.10391  7.6e-05  0.095284  0.10119  3.9e-05  1.064961  0.0
H  H146  1  0.28544426  0.26720298  0.38355047  1  0.103815  7.6e-05  0.095274  0.101172  3.8e-05  1.065061  0.0
H  H147  1  0.78544617  0.23279631  0.11644720  1  0.103855  7.6e-05  0.095272  0.101143  3.9e-05  1.065036  0.0
H  H148  1  0.75255655  0.65778387  0.36202541  1  0.077787  8.7e-05  0.09602  0.108285  6e-05  1.045569  0.0
H  H149  1  0.25255774  0.84221741  0.13797524  1  0.077802  8.7e-05  0.096018  0.10824  6e-05  1.045656  0.0
H  H150  1  0.24744451  0.34221889  0.63797331  1  0.077436  8.7e-05  0.096061  0.108314  6e-05  1.045503  0.0
H  H151  1  0.74744265  0.15778272  0.86202538  1  0.077824  8.7e-05  0.096014  0.108264  6e-05  1.045582  0.0
H  H152  1  0.64977569  0.68545095  0.47748902  1  0.053301  3.7e-05  0.099998  0.093933  -1.1e-05  1.007323  0.0
H  H153  1  0.14977649  0.81455115  0.02251317  1  0.053229  3.7e-05  0.099978  0.09397  -1.1e-05  1.007269  0.0
H  H154  1  0.35022603  0.31455051  0.52250871  1  0.053294  3.7e-05  0.09999  0.093961  -1.1e-05  1.007306  0.0
H  H155  1  0.85022523  0.18545029  0.97748788  1  0.05321  3.7e-05  0.099983  0.093933  -1.1e-05  1.007296  0.0
H  H156  1  0.99871981  0.69857291  0.39096861  1  0.040636  8.1e-05  0.091508  0.129511  -2.8e-05  1.025697  0.0
H  H157  1  0.49872044  0.80142864  0.10903231  1  0.040755  8.1e-05  0.091515  0.12952  -2.8e-05  1.025693  0.0
H  H158  1  0.00128059  0.30142985  0.60903123  1  0.040436  8.1e-05  0.091521  0.129546  -2.8e-05  1.025674  0.0
H  H159  1  0.50127930  0.19857083  0.89097086  1  0.040396  8.1e-05  0.091508  0.129523  -2.8e-05  1.025664  0.0
H  H160  1  0.91010431  0.70208289  0.32709395  1  0.048523  7.4e-05  0.094309  0.140091  -2.8e-05  1.015949  0.0
H  H161  1  0.41010547  0.79791880  0.17290715  1  0.048565  7.4e-05  0.094285  0.140023  -2.8e-05  1.015991  0.0
H  H162  1  0.08989741  0.29791987  0.67290588  1  0.048565  7.4e-05  0.094302  0.140053  -2.8e-05  1.015952  0.0
H  H163  1  0.58989493  0.20208199  0.82709535  1  0.048591  7.4e-05  0.094301  0.140045  -2.8e-05  1.015905  0.0
H  H164  1  0.94062384  0.60143336  0.33414166  1  0.116593  0.000156  0.099476  0.155809  -0.000112  1.020981  0.0
H  H165  1  0.44062426  0.89856828  0.16585882  1  0.116557  0.000156  0.099477  0.155819  -0.000112  1.020991  0.0
H  H166  1  0.05937788  0.39856940  0.66585872  1  0.116535  0.000156  0.099461  0.155802  -0.000112  1.021038  0.0
H  H167  1  0.55937613  0.10143185  0.83414179  1  0.116569  0.000156  0.099462  0.155796  -0.000112  1.021022  0.0
H  H168  1  0.87826607  0.74901319  0.63167646  1  0.094692  4.1e-05  0.109945  0.082345  -1.8e-05  0.993388  0.0
H  H169  1  0.37826619  0.75098753  0.86832454  1  0.094711  4.1e-05  0.10997  0.082374  -1.8e-05  0.993388  0.0
H  H170  1  0.12173300  0.25098760  0.36832216  1  0.094655  4.1e-05  0.109976  0.082328  -1.8e-05  0.993422  0.0
H  H171  1  0.62173421  0.24900801  0.13167674  1  0.094716  4.1e-05  0.11  0.082384  -1.8e-05  0.99345  0.0
C  C172  1  0.64981500  0.84539799  0.75166927  1  -0.12507  -0.001302  -0.026504  -0.028846  -0.002346  4.05128  -0.002
C  C173  1  0.14981479  0.65460179  0.74832899  1  -0.124922  -0.001302  -0.026486  -0.028823  -0.002346  4.051324  -0.002
C  C174  1  0.35018341  0.15460280  0.24833101  1  -0.125043  -0.001302  -0.026528  -0.028928  -0.002346  4.051404  -0.002
C  C175  1  0.85018362  0.34539769  0.25167030  1  -0.125043  -0.001302  -0.026483  -0.028821  -0.002347  4.051367  -0.002
C  C176  1  0.31530945  0.22594514  0.77171490  1  -0.045665  0.001659  -0.025609  -0.032199  0.000416  4.043815  0.0
C  C177  1  0.81530778  0.27405374  0.72828554  1  -0.0455  0.001657  -0.025644  -0.032323  0.000415  4.044039  0.0
C  C178  1  0.68469294  0.77405827  0.22828793  1  -0.04546  0.00166  -0.025577  -0.032168  0.000417  4.043884  0.0
C  C179  1  0.18469394  0.72594116  0.27171219  1  -0.045464  0.001659  -0.025569  -0.032178  0.000416  4.04382  0.0
C  C180  1  0.64660500  0.75984451  0.75093826  1  -0.04948  0.00795  -0.103125  -0.166709  0.005733  4.002311  0.005
C  C181  1  0.14660538  0.74015723  0.74906233  1  -0.049479  0.007951  -0.103142  -0.166715  0.005734  4.002283  0.005
C  C182  1  0.35339474  0.24015628  0.24906036  1  -0.049382  0.00795  -0.103145  -0.166804  0.005733  4.002417  0.005
C  C183  1  0.85339568  0.25984355  0.25093906  1  -0.049388  0.007951  -0.103107  -0.166707  0.005734  4.002275  0.005
C  C184  1  0.80634448  0.85613100  0.78756150  1  0.429266  -0.000405  0.097731  0.234223  -0.000573  4.112782  -0.001
C  C185  1  0.30634568  0.64387049  0.71243932  1  0.429251  -0.000405  0.097732  0.234216  -0.000573  4.112783  -0.001
C  C186  1  0.19365195  0.14387306  0.21244100  1  0.429025  -0.000405  0.097726  0.23412  -0.000572  4.112863  -0.001
C  C187  1  0.69365471  0.35612899  0.28756107  1  0.429345  -0.000405  0.097715  0.234145  -0.000573  4.112865  -0.001
C  C188  1  0.07813202  0.39510332  0.93104924  1  -0.042899  0.005733  0.014282  0.149154  0.0043  3.927497  0.004
C  C189  1  0.57813150  0.10489790  0.56894958  1  -0.042771  0.005732  0.014282  0.149064  0.0043  3.9274  0.004
C  C190  1  0.92186838  0.60490009  0.06894970  1  -0.042804  0.005735  0.014276  0.149201  0.004302  3.927436  0.004
C  C191  1  0.42186824  0.89510158  0.43104860  1  -0.042734  0.005734  0.014254  0.14902  0.004301  3.92753  0.004
C  C192  1  0.00103751  0.38092200  0.96778129  1  -0.061284  0.000151  -0.086369  -0.189968  -0.000357  3.95098  0.0
C  C193  1  0.50103839  0.11908066  0.53221757  1  -0.060998  0.00015  -0.086395  -0.189897  -0.000357  3.950995  0.0
C  C194  1  0.99896288  0.61908076  0.03221688  1  -0.061016  0.00015  -0.086394  -0.189971  -0.000358  3.950997  0.0
C  C195  1  0.49896135  0.88091948  0.46778083  1  -0.06116  0.00015  -0.086341  -0.189857  -0.000357  3.950886  0.0
C  C196  1  0.72292985  0.72267778  0.76890890  1  -0.0548  0.001195  -0.022226  -0.030385  -2.9e-05  4.036207  0.0
C  C197  1  0.22293024  0.77732188  0.73108976  1  -0.054834  0.001193  -0.02222  -0.030367  -3e-05  4.036198  0.0
C  C198  1  0.27707055  0.27732171  0.23108817  1  -0.054833  0.001194  -0.022184  -0.030283  -2.9e-05  4.03613  0.0
C  C199  1  0.77707082  0.22267694  0.26891041  1  -0.054971  0.001195  -0.02223  -0.030384  -2.9e-05  4.036243  0.0
C  C200  1  0.31629597  0.13315473  0.76806157  1  1.545209  0.028063  0.222172  0.583214  0.027436  4.186817  0.025
C  C201  1  0.81629554  0.36684283  0.73193787  1  1.545125  0.028068  0.222191  0.583315  0.027439  4.186856  0.025
C  C202  1  0.68370244  0.86684737  0.23193804  1  1.545244  0.028058  0.222135  0.583194  0.027431  4.186767  0.025
C  C203  1  0.18370221  0.63315402  0.26806442  1  1.545205  0.028071  0.222132  0.583198  0.027444  4.186867  0.025
C  C204  1  0.23497708  0.36272971  0.79745270  1  0.426841  -0.000367  0.098122  0.233136  -0.000513  4.100528  -0.001
C  C205  1  0.73497559  0.13726864  0.70254713  1  0.426945  -0.000367  0.098112  0.233177  -0.000514  4.100505  -0.001
C  C206  1  0.76502332  0.63727239  0.20254913  1  0.426854  -0.000367  0.09819  0.233116  -0.000513  4.100415  -0.001
C  C207  1  0.26502349  0.86272692  0.29744972  1  0.427039  -0.000367  0.098179  0.23308  -0.000514  4.100504  -0.001
C  C208  1  0.31206627  0.39743740  0.77593454  1  -0.173474  0.006667  -0.097006  -0.214882  0.005095  3.947139  0.004
C  C209  1  0.81206410  0.10256147  0.72406757  1  -0.173657  0.006668  -0.096981  -0.21487  0.005096  3.947053  0.004
C  C210  1  0.68793413  0.60256469  0.22406784  1  -0.173397  0.006664  -0.097109  -0.21493  0.005093  3.947043  0.004
C  C211  1  0.18793299  0.89743538  0.27593194  1  -0.173593  0.006669  -0.097091  -0.214924  0.005096  3.947133  0.004
C  C212  1  0.80150863  0.77042970  0.78816169  1  -0.030605  0.007343  -0.093698  -0.208591  0.005631  3.910121  0.004
C  C213  1  0.30150976  0.72957114  0.71183837  1  -0.030639  0.007343  -0.093703  -0.208622  0.005631  3.91009  0.004
C  C214  1  0.19849110  0.22957306  0.21183815  1  -0.03058  0.007342  -0.093719  -0.208586  0.005631  3.910052  0.004
C  C215  1  0.69849262  0.27042637  0.28816081  1  -0.03068  0.007344  -0.093721  -0.208582  0.005633  3.910181  0.004
C  C216  1  0.07989284  0.38199092  0.84354091  1  0.280544  0.000512  -0.055147  -0.084957  0.00035  3.939881  0.0
C  C217  1  0.57989279  0.11801095  0.65645923  1  0.28066  0.000512  -0.055106  -0.084881  0.00035  3.93964  0.0
C  C218  1  0.92010821  0.61801118  0.15645814  1  0.280449  0.000512  -0.055155  -0.084956  0.00035  3.939744  0.0
C  C219  1  0.42010629  0.88199050  0.34353961  1  0.280546  0.000512  -0.055167  -0.085047  0.00035  3.939888  0.0
C  C220  1  0.56781390  0.88647456  0.73481658  1  1.528132  0.007847  0.202768  0.554473  0.009137  4.212582  0.006
C  C221  1  0.06781303  0.61352666  0.76518229  1  1.528231  0.007844  0.20276  0.554438  0.009134  4.212648  0.006
C  C222  1  0.43218584  0.11352885  0.26518459  1  1.52867  0.007845  0.202863  0.554582  0.009137  4.212735  0.006
C  C223  1  0.93218604  0.38647151  0.23481655  1  1.528523  0.007848  0.202842  0.554617  0.009138  4.212678  0.006
C  C224  1  0.47077510  0.38682874  0.73394734  1  1.538979  0.007681  0.199996  0.552839  0.008886  4.210113  0.006
C  C225  1  0.97077349  0.11317055  0.76605356  1  1.538979  0.007678  0.200039  0.552927  0.008882  4.210089  0.006
C  C226  1  0.52922662  0.61317335  0.26605671  1  1.539048  0.007677  0.200013  0.552899  0.00888  4.209962  0.006
C  C227  1  0.02922691  0.88682697  0.23394507  1  1.539068  0.007681  0.199968  0.552799  0.008885  4.21017  0.006
C  C228  1  0.23881330  0.27658632  0.79690260  1  -0.031563  0.00655  -0.096764  -0.211542  0.004913  3.911746  0.004
C  C229  1  0.73881173  0.22341137  0.70309700  1  -0.03157  0.00655  -0.096685  -0.211467  0.004913  3.91177  0.004
C  C230  1  0.76118644  0.72341578  0.20309646  1  -0.031597  0.006548  -0.096752  -0.211511  0.004912  3.911683  0.004
C  C231  1  0.26118735  0.77658483  0.29690451  1  -0.031638  0.006551  -0.096758  -0.211545  0.004914  3.911675  0.004
C  C232  1  0.39045807  0.26081060  0.74955304  1  -0.052487  0.007512  -0.103923  -0.165639  0.005409  4.000459  0.005
C  C233  1  0.89045572  0.23918946  0.75044714  1  -0.052603  0.007513  -0.103955  -0.165699  0.005409  4.000622  0.005
C  C234  1  0.60954233  0.73919084  0.25044691  1  -0.052724  0.00751  -0.103952  -0.165714  0.005407  4.00058  0.005
C  C235  1  0.10954402  0.76080870  0.24955448  1  -0.052662  0.007514  -0.103974  -0.165694  0.005411  4.000518  0.005
C  C236  1  0.72080816  0.63098156  0.76771970  1  1.568961  0.029128  0.228932  0.599558  0.028398  4.152459  0.025
C  C237  1  0.22080648  0.86901680  0.73227908  1  1.568807  0.029134  0.228953  0.599594  0.028402  4.152409  0.025
C  C238  1  0.27918959  0.36901924  0.23228003  1  1.569167  0.029127  0.228944  0.59956  0.028398  4.152511  0.025
C  C239  1  0.77919260  0.13097875  0.26771943  1  1.569227  0.029134  0.229028  0.599661  0.028404  4.152413  0.025
C  C240  1  0.72873429  0.89285937  0.76949413  1  0.034532  0.00708  -0.098216  -0.211713  0.00549  3.937715  0.004
C  C241  1  0.22873615  0.60714224  0.73050684  1  0.034443  0.007082  -0.09824  -0.21183  0.005491  3.937797  0.004
C  C242  1  0.27126280  0.10714338  0.23050681  1  0.034496  0.007081  -0.098209  -0.211656  0.00549  3.937862  0.004
C  C243  1  0.77126359  0.39285790  0.26949377  1  0.034467  0.007081  -0.09823  -0.211767  0.005491  3.93791  0.004
C  C244  1  0.93202705  0.89309669  0.93227361  1  -0.025835  0.003917  0.011986  0.143099  0.002935  3.933759  0.002
C  C245  1  0.43202595  0.60690198  0.56772607  1  -0.026064  0.003913  0.012012  0.143186  0.002932  3.933647  0.002
C  C246  1  0.06797401  0.10690278  0.06772678  1  -0.025873  0.003914  0.012007  0.143234  0.002933  3.933635  0.002
C  C247  1  0.56797511  0.39309750  0.43227377  1  -0.026082  0.003911  0.012062  0.143269  0.002931  3.933596  0.002
C  C248  1  0.95478569  0.87808348  0.84626168  1  0.335412  0.000332  -0.057602  -0.081496  0.000194  3.936563  0.0
C  C249  1  0.45478638  0.62191646  0.65373784  1  0.335407  0.000332  -0.057618  -0.081511  0.000194  3.93649  0.0
C  C250  1  0.04521471  0.12191665  0.15373894  1  0.335427  0.000332  -0.05759  -0.081545  0.000195  3.936593  0.0
C  C251  1  0.54521534  0.37808237  0.34626011  1  0.321612  0.000333  -0.057571  -0.081554  0.000194  3.936599  0.0
C  C252  1  0.00219953  0.39623870  0.04907866  1  0.492622  0.006948  0.047189  0.092319  0.005254  3.978285  0.005
C  C253  1  0.50220150  0.10376497  0.45092092  1  0.492518  0.006948  0.04718  0.092301  0.005253  3.978281  0.005
C  C254  1  0.99779889  0.60376341  0.95091985  1  0.492525  0.006951  0.047192  0.092356  0.005256  3.978261  0.005
C  C255  1  0.49779890  0.89623844  0.54907914  1  0.492783  0.006949  0.047194  0.092348  0.005255  3.978193  0.005
C  C256  1  0.38877994  0.34719728  0.75252189  1  0.023643  -0.001316  -0.025808  -0.022584  -0.002233  4.044562  -0.002
C  C257  1  0.88877834  0.15280345  0.74747906  1  0.023666  -0.001316  -0.025844  -0.022606  -0.002233  4.044547  -0.002
C  C258  1  0.61121979  0.65280548  0.24747850  1  0.023662  -0.001315  -0.025782  -0.022559  -0.002232  4.044459  -0.002
C  C259  1  0.11122139  0.84719341  0.25251989  1  0.023552  -0.001316  -0.025796  -0.022561  -0.002234  4.044607  -0.002
C  C260  1  0.95673342  0.83325880  0.96724835  1  -0.028983  0.000502  -0.087561  -0.191018  4.1e-05  3.94504  0.0
C  C261  1  0.45672970  0.66674179  0.53275249  1  -0.029147  0.000503  -0.087548  -0.191086  4.2e-05  3.945047  0.0
C  C262  1  0.04326962  0.16674198  0.03275304  1  -0.029154  0.000503  -0.087591  -0.191246  4.1e-05  3.945198  0.0
C  C263  1  0.54327136  0.33325834  0.46724757  1  -0.029094  0.000503  -0.08757  -0.191151  4.2e-05  3.945064  0.0
C  C264  1  0.88467577  0.96721285  0.97965063  1  -0.004502  0.000264  -0.0877  -0.184755  -0.00011  3.963984  0.0
C  C265  1  0.38467351  0.53278721  0.52034958  1  -0.004299  0.000265  -0.08776  -0.184905  -0.000108  3.963992  0.0
C  C266  1  0.11532595  0.03278860  0.02035042  1  -0.004588  0.000265  -0.08771  -0.184747  -0.000109  3.963964  0.0
C  C267  1  0.61532887  0.46721162  0.47965004  1  -0.004427  0.000266  -0.087795  -0.184855  -0.000108  3.963984  0.0
C  C268  1  0.15358934  0.42207629  0.97847272  1  0.003226  -0.000177  -0.091005  -0.185981  -0.000711  3.959979  0.0
C  C269  1  0.65359027  0.07792743  0.52152738  1  0.003281  -0.000177  -0.091023  -0.18598  -0.000711  3.96005  0.0
C  C270  1  0.84641106  0.57792712  0.02152845  1  0.003222  -0.000177  -0.090968  -0.185976  -0.000712  3.959948  0.0
C  C271  1  0.34641013  0.92207271  0.47847046  1  0.003062  -0.000177  -0.090986  -0.185932  -0.000712  3.95999  0.0
C  C272  1  0.93544501  0.85038306  0.04686240  1  0.46478  0.005072  0.047338  0.0966  0.003895  3.956065  0.003
C  C273  1  0.43544371  0.64961924  0.45313887  1  0.465294  0.005068  0.047335  0.096613  0.003891  3.956108  0.003
C  C274  1  0.06455407  0.14961838  0.95313921  1  0.464655  0.005069  0.04735  0.096657  0.003892  3.956106  0.003
C  C275  1  0.56455669  0.35038220  0.54686218  1  0.464714  0.005066  0.047368  0.096681  0.003889  3.956053  0.003
C  C276  1  0.14972439  0.43407614  0.05879102  1  0.431384  0.007303  0.048537  0.100739  0.005798  3.95112  0.005
C  C277  1  0.64972509  0.06592532  0.44120926  1  0.431373  0.007301  0.048534  0.100711  0.005797  3.951166  0.005
C  C278  1  0.85027403  0.56592530  0.94120893  1  0.431384  0.007306  0.048552  0.100733  0.005802  3.951016  0.005
C  C279  1  0.35027266  0.93407481  0.55878914  1  0.431365  0.007304  0.048529  0.10071  0.0058  3.951193  0.005
C  C280  1  0.86606514  0.97959134  0.05863118  1  0.396478  0.005009  0.046927  0.091792  0.00391  3.9601  0.003
C  C281  1  0.36606265  0.52041043  0.44136835  1  0.396491  0.005005  0.046903  0.091737  0.003906  3.960144  0.003
C  C282  1  0.13393526  0.02041011  0.94136877  1  0.396507  0.005006  0.046952  0.09182  0.003907  3.960153  0.003
C  C283  1  0.63393642  0.47959102  0.55863160  1  0.396557  0.005003  0.046933  0.091766  0.003905  3.960161  0.003
C  C284  1  0.61711653  0.52075719  0.00272280  1  -0.025473  0.000288  -0.08979  -0.194454  -0.000215  3.953992  0.0
C  C285  1  0.11711683  0.97924365  0.49727735  1  -0.025563  0.000289  -0.08978  -0.194379  -0.000214  3.954241  0.0
C  C286  1  0.38288519  0.47924360  0.99727859  1  -0.025562  0.000289  -0.08982  -0.194535  -0.000214  3.954251  0.0
C  C287  1  0.88288621  0.02075648  0.50272327  1  -0.025546  0.00029  -0.089786  -0.194413  -0.000213  3.954237  0.0
C  C288  1  0.88105049  0.44468312  0.59377357  1  1.384951  0.005823  0.18407  0.306767  0.005921  4.087871  0.005
C  C289  1  0.38104937  0.05530911  0.90622230  1  1.385175  0.005822  0.184252  0.307146  0.00592  4.087697  0.005
C  C290  1  0.11895123  0.55531046  0.40622428  1  1.385142  0.005825  0.184197  0.307056  0.005922  4.087511  0.005
C  C291  1  0.61894904  0.94468710  0.09377643  1  1.385085  0.005828  0.184139  0.306876  0.005926  4.087515  0.005
C  C292  1  0.57772457  0.60315483  0.02936080  1  -0.059987  0.004026  -0.070241  -0.016752  0.00298  3.973808  0.002
C  C293  1  0.07772368  0.89684869  0.47064032  1  -0.059895  0.004024  -0.070318  -0.016862  0.002978  3.973851  0.002
C  C294  1  0.42227649  0.39684726  0.97064159  1  -0.059886  0.004025  -0.070288  -0.016842  0.002979  3.97382  0.002
C  C295  1  0.92227804  0.10315210  0.52935830  1  -0.060009  0.00402  -0.070276  -0.016905  0.002975  3.973934  0.002
C  C296  1  0.56695895  0.58918182  0.89270794  1  0.467718  0.005315  0.047856  0.103356  0.004077  3.948787  0.003
C  C297  1  0.06695816  0.91081874  0.60729182  1  0.467652  0.005312  0.047814  0.10327  0.004075  3.948773  0.003
C  C298  1  0.43304211  0.41081897  0.10729345  1  0.467657  0.005314  0.047847  0.103334  0.004075  3.948701  0.003
C  C299  1  0.93304356  0.08917943  0.39270702  1  0.467715  0.005309  0.047806  0.103196  0.004072  3.948802  0.003
C  C300  1  0.55130602  0.63794578  0.97293569  1  -0.066657  0.00011  -0.096525  -0.15032  -0.000412  3.998177  0.0
C  C301  1  0.05130611  0.86205611  0.52706565  1  -0.066713  0.000111  -0.096505  -0.150284  -0.000412  3.998109  0.0
C  C302  1  0.44869437  0.36205632  0.02706669  1  -0.066725  0.00011  -0.096456  -0.150244  -0.000412  3.998095  0.0
C  C303  1  0.94869759  0.13794140  0.47293297  1  -0.066616  0.000111  -0.096453  -0.150058  -0.000411  3.998069  0.0
C  C304  1  0.67419349  0.38713122  0.89078927  1  -0.083321  0.001735  -0.238379  -0.46082  0.001818  3.931572  0.001
C  C305  1  0.17419494  0.11286853  0.60921002  1  -0.083339  0.001734  -0.238335  -0.460736  0.001816  3.931647  0.001
C  C306  1  0.32580691  0.61286891  0.10921023  1  -0.083285  0.001733  -0.23839  -0.460842  0.001818  3.931605  0.001
C  C307  1  0.82580678  0.88713160  0.39079060  1  -0.083347  0.001733  -0.238326  -0.460667  0.001816  3.931744  0.001
C  C308  1  0.83702191  0.34515745  0.46231547  1  0.273735  0.000794  -0.131155  -0.273778  0.000713  3.907133  0.0
C  C309  1  0.33702612  0.15483980  0.03768143  1  0.273768  0.000794  -0.131163  -0.273822  0.000713  3.90714  0.0
C  C310  1  0.16297651  0.65483549  0.53767883  1  0.273856  0.000794  -0.131145  -0.273806  0.000713  3.907193  0.0
C  C311  1  0.66297428  0.84516229  0.96232151  1  0.273721  0.000794  -0.131097  -0.273737  0.000713  3.906925  0.0
C  C312  1  0.63125230  0.47541638  0.92087578  1  0.497172  0.005301  0.123148  0.309065  0.003972  3.953003  0.004
C  C313  1  0.13125455  0.02458410  0.57912326  1  0.497159  0.005299  0.123142  0.309005  0.00397  3.953091  0.004
C  C314  1  0.36874479  0.52458244  0.07912384  1  0.497188  0.005299  0.123189  0.309158  0.003971  3.953  0.004
C  C315  1  0.86874584  0.97541603  0.42087680  1  0.497163  0.005295  0.12317  0.309088  0.003968  3.953015  0.004
C  C316  1  0.87594229  0.49968621  0.48533773  1  0.255772  0.000443  -0.13359  -0.269945  0.00031  3.88054  0.0
C  C317  1  0.37594404  0.00031228  0.01466231  1  0.255705  0.000443  -0.133632  -0.269957  0.00031  3.880549  0.0
C  C318  1  0.12405480  0.50030935  0.51466023  1  0.255718  0.000443  -0.133622  -0.26987  0.00031  3.880576  0.0
C  C319  1  0.62405437  0.99968915  0.98534152  1  0.25563  0.000443  -0.133578  -0.269911  0.00031  3.880491  0.0
C  C320  1  0.75640571  0.71957492  0.56410436  1  -0.052767  0.000161  -0.100789  -0.154283  9.5e-05  4.010208  0.0
C  C321  1  0.25640698  0.78042599  0.93589801  1  -0.053115  0.000161  -0.100829  -0.154429  9.5e-05  4.010343  0.0
C  C322  1  0.24359337  0.28042719  0.43589304  1  -0.052595  0.000161  -0.100759  -0.154344  9.5e-05  4.010444  0.0
C  C323  1  0.74359342  0.21957217  0.06410472  1  -0.052734  0.000161  -0.100771  -0.154287  9.5e-05  4.010315  0.0
C  C324  1  0.86969872  0.68815890  0.43646931  1  0.529041  3.9e-05  0.11782  0.307375  2.3e-05  3.971054  0.0
C  C325  1  0.36970009  0.81184154  0.06353143  1  0.528788  3.9e-05  0.117819  0.307293  2.3e-05  3.971187  0.0
C  C326  1  0.13030366  0.31184386  0.56352996  1  0.529289  3.9e-05  0.117792  0.307353  2.3e-05  3.971098  0.0
C  C327  1  0.63030229  0.18815597  0.93646941  1  0.529137  3.9e-05  0.117758  0.307366  2.3e-05  3.971123  0.0
C  C328  1  0.77820042  0.67750783  0.42271131  1  -0.073831  0.000148  -0.095425  -0.192903  8.8e-05  3.937401  0.0
C  C329  1  0.27820109  0.82249275  0.07728962  1  -0.073899  0.000149  -0.095401  -0.192747  8.8e-05  3.937428  0.0
C  C330  1  0.22180262  0.32249231  0.57728653  1  -0.073507  0.000148  -0.095393  -0.192802  8.8e-05  3.937373  0.0
C  C331  1  0.72180129  0.17750607  0.92271222  1  -0.073857  0.000149  -0.095391  -0.192847  8.8e-05  3.937417  0.0
C  C332  1  0.72108613  0.69332527  0.48716102  1  -0.068026  8.7e-05  -0.082508  -0.045759  5.5e-05  4.027838  0.0
C  C333  1  0.22108696  0.80667672  0.01284158  1  -0.067535  8.7e-05  -0.082513  -0.045858  5.5e-05  4.027858  0.0
C  C334  1  0.27891361  0.30667684  0.51283748  1  -0.067961  8.7e-05  -0.08255  -0.045882  5.5e-05  4.027976  0.0
C  C335  1  0.77891410  0.19332472  0.98716059  1  -0.067963  8.7e-05  -0.082548  -0.045828  5.5e-05  4.027836  0.0
C  C336  1  0.93340301  0.67195500  0.36872017  1  -0.117333  0.00028  -0.242182  -0.454209  0.000123  3.904518  0.0
C  C337  1  0.43340290  0.82804665  0.13127978  1  -0.117213  0.00028  -0.242161  -0.45414  0.000123  3.904634  0.0
C  C338  1  0.06659805  0.32804776  0.63127911  1  -0.117153  0.00028  -0.242186  -0.454242  0.000123  3.904527  0.0
C  C339  1  0.56659683  0.17195282  0.86872172  1  -0.11708  0.00028  -0.242147  -0.454172  0.000123  3.904498  0.0
C  C340  1  0.84796021  0.72869508  0.57250610  1  0.458172  7.4e-05  0.037567  0.089713  2.3e-05  4.011669  0.0
C  C341  1  0.34796151  0.77130634  0.92749519  1  0.458184  7.4e-05  0.037561  0.089756  2.3e-05  4.011707  0.0
C  C342  1  0.15203754  0.27130506  0.42749285  1  0.457988  7.4e-05  0.037553  0.089781  2.3e-05  4.011703  0.0
C  C343  1  0.65203823  0.22869313  0.07250576  1  0.458185  7.4e-05  0.037529  0.089686  2.3e-05  4.011822  0.0
N  N344  1  0.07522833  0.42244735  0.09449908  1  -1.253695  0.050015  -0.321804  -0.263256  0.034071  3.516349  0.017
N  N345  1  0.57522910  0.07755293  0.40550035  1  -1.253697  0.050009  -0.321835  -0.263328  0.034071  3.516278  0.017
N  N346  1  0.92477009  0.57755344  0.90550009  1  -1.25373  0.050023  -0.32187  -0.263365  0.034074  3.516358  0.017
N  N347  1  0.42476931  0.92244525  0.59449739  1  -1.253728  0.050011  -0.321837  -0.263306  0.034073  3.516366  0.017
N  N348  1  0.89146641  0.92271271  0.09273797  1  -1.243071  0.049827  -0.313691  -0.244529  0.034465  3.470613  0.021
N  N349  1  0.39146395  0.57728835  0.40726240  1  -1.242938  0.049821  -0.31364  -0.244486  0.034462  3.470514  0.021
N  N350  1  0.10853399  0.07728808  0.90726287  1  -1.242802  0.049825  -0.313693  -0.244581  0.034464  3.47066  0.021
N  N351  1  0.60853645  0.42271243  0.59273844  1  -1.242937  0.049816  -0.313657  -0.244515  0.034459  3.470439  0.021
N  N352  1  0.15983041  0.41299005  0.81920182  1  -1.253585  0.000137  -0.448055  -0.343013  -0.00013  3.602711  0.0
N  N353  1  0.65982967  0.08700907  0.68079672  1  -1.253103  0.000137  -0.448091  -0.343067  -0.00013  3.602539  0.0
N  N354  1  0.84016999  0.58701074  0.18079735  1  -1.253537  0.000137  -0.448031  -0.343004  -0.00013  3.602522  0.0
N  N355  1  0.34016808  0.91298910  0.31920101  1  -1.253559  0.000137  -0.448032  -0.342873  -0.00013  3.602725  0.0
N  N356  1  0.88403926  0.90235874  0.80480156  1  -1.272393  0.000138  -0.447776  -0.342774  -0.000175  3.592213  0.0
N  N357  1  0.38403988  0.59764197  0.69519943  1  -1.272393  0.000138  -0.447745  -0.342672  -0.000175  3.592219  0.0
N  N358  1  0.11596047  0.09764139  0.19519849  1  -1.27224  0.000138  -0.447781  -0.342653  -0.000175  3.592266  0.0
N  N359  1  0.61596184  0.40235817  0.30480063  1  -1.272526  0.000138  -0.447793  -0.342692  -0.000175  3.59228  0.0
N  N360  1  0.60716615  0.51035509  0.86644166  1  -1.261465  0.046163  -0.309989  -0.305864  0.031921  3.411233  0.017
N  N361  1  0.10716854  0.98964475  0.63355724  1  -1.261372  0.046152  -0.309969  -0.305809  0.03192  3.411058  0.017
N  N362  1  0.39283359  0.48964635  0.13355940  1  -1.26144  0.046152  -0.309962  -0.305863  0.031919  3.411108  0.017
N  N363  1  0.89283318  0.01035407  0.36644293  1  -1.261362  0.046141  -0.309967  -0.305839  0.031918  3.411095  0.017
N  N364  1  0.86524171  0.43078527  0.51722310  1  -1.219277  0.007181  -0.279219  0.030896  0.00524  3.733714  0.005
N  N365  1  0.36524439  0.06921092  0.98277414  1  -1.219559  0.00718  -0.279173  0.030842  0.00524  3.733575  0.005
N  N366  1  0.13475670  0.56920897  0.48277553  1  -1.219646  0.007182  -0.279161  0.030977  0.005241  3.733665  0.005
N  N367  1  0.63475469  0.93078987  0.01722670  1  -1.219583  0.007186  -0.279168  0.030975  0.005244  3.733605  0.005
N  N368  1  0.90375875  0.71330971  0.51073206  1  -1.207121  0.000119  -0.323988  -0.329007  7.2e-05  3.306755  0.0
N  N369  1  0.40376056  0.78669096  0.98926945  1  -1.207225  0.000119  -0.323987  -0.328989  7.2e-05  3.306744  0.0
N  N370  1  0.09624099  0.28669370  0.48926911  1  -1.207279  0.000119  -0.324029  -0.329012  7.2e-05  3.306772  0.0
N  N371  1  0.59624050  0.21330392  0.01073106  1  -1.207321  0.000119  -0.32396  -0.328981  7.2e-05  3.30677  0.0
O  O372  1  0.54341521  0.34347440  0.72357452  1  -1.190245  0.05285  -0.317376  -0.560654  0.036742  2.250533  0.026
O  O373  1  0.04341429  0.15652491  0.77642537  1  -1.190144  0.052826  -0.317388  -0.560714  0.036734  2.250481  0.026
O  O374  1  0.45658386  0.65652639  0.27642521  1  -1.19032  0.052836  -0.317398  -0.560737  0.03674  2.250457  0.026
O  O375  1  0.95658545  0.84347522  0.22357524  1  -1.190288  0.052845  -0.317371  -0.560622  0.036738  2.250574  0.026
O  O376  1  0.49576693  0.84245097  0.72077752  1  -1.189307  0.05386  -0.314038  -0.552903  0.037463  2.242571  0.026
O  O377  1  0.99576459  0.65754826  0.77921947  1  -1.189325  0.053844  -0.314042  -0.552835  0.037456  2.242521  0.026
O  O378  1  0.50423413  0.15755375  0.27922353  1  -1.189421  0.053866  -0.314098  -0.552965  0.037469  2.242588  0.026
O  O379  1  0.00423515  0.34244729  0.22077738  1  -1.189445  0.053867  -0.314102  -0.552976  0.037466  2.242556  0.026
O  O380  1  0.57008238  0.96463402  0.73544989  1  -1.197227  0.042937  -0.310888  -0.573687  0.03203  2.23141  0.024
O  O381  1  0.07008026  0.53536849  0.76455219  1  -1.197238  0.042933  -0.310887  -0.573703  0.032026  2.231365  0.024
O  O382  1  0.42992000  0.03537135  0.26455305  1  -1.197593  0.042934  -0.310903  -0.573688  0.032027  2.23152  0.024
O  O383  1  0.92992146  0.46463033  0.23544798  1  -1.197438  0.042941  -0.310883  -0.573717  0.032034  2.231499  0.024
O  O384  1  0.38558524  0.08736139  0.74114955  1  -1.197899  0.074203  -0.306488  -0.553986  0.052685  2.318699  0.036
O  O385  1  0.88558537  0.41263476  0.75884876  1  -1.197806  0.074202  -0.306454  -0.553952  0.052688  2.318814  0.036
O  O386  1  0.61440987  0.91263548  0.25884552  1  -1.197934  0.074193  -0.306456  -0.553903  0.052679  2.318643  0.036
O  O387  1  0.11441106  0.58736471  0.24115608  1  -1.197951  0.074211  -0.306452  -0.553937  0.052689  2.318758  0.036
O  O388  1  0.24856515  0.10534136  0.79360596  1  -1.223367  0.078821  -0.322313  -0.573309  0.055379  2.4255  0.033
O  O389  1  0.74856673  0.39465697  0.70639218  1  -1.223494  0.078847  -0.32234  -0.573389  0.055381  2.425517  0.033
O  O390  1  0.75143327  0.89466008  0.20639343  1  -1.223424  0.078828  -0.322322  -0.573354  0.05538  2.425479  0.033
O  O391  1  0.25143301  0.60533989  0.29360567  1  -1.223534  0.078868  -0.322292  -0.573292  0.055391  2.42567  0.033
O  O392  1  0.78547834  0.60381175  0.79746308  1  -1.218685  0.074268  -0.3136  -0.57311  0.05232  2.392004  0.031
O  O393  1  0.28547538  0.89618847  0.70253512  1  -1.218645  0.074256  -0.313614  -0.573152  0.052319  2.391995  0.031
O  O394  1  0.21452007  0.39618839  0.20253476  1  -1.218732  0.074243  -0.313679  -0.573185  0.052314  2.391952  0.031
O  O395  1  0.71452171  0.10381167  0.29746494  1  -1.218725  0.074271  -0.31365  -0.573146  0.05232  2.392002  0.031
O  O396  1  0.46852969  0.46318215  0.73108796  1  -1.202544  0.043447  -0.307988  -0.561146  0.031217  2.232954  0.024
O  O397  1  0.96853013  0.03681714  0.76891128  1  -1.202604  0.043449  -0.307991  -0.561171  0.031215  2.232967  0.024
O  O398  1  0.53147401  0.53682059  0.26891631  1  -1.202499  0.043425  -0.307975  -0.561174  0.031205  2.232869  0.024
O  O399  1  0.03147291  0.96318104  0.23108534  1  -1.202552  0.043453  -0.307925  -0.561127  0.031217  2.232958  0.024
O  O400  1  0.65241423  0.58495917  0.73728377  1  -1.205275  0.078602  -0.308563  -0.555404  0.054553  2.364305  0.037
O  O401  1  0.15241311  0.91504060  0.76271837  1  -1.205239  0.078629  -0.308594  -0.555402  0.054557  2.364265  0.037
O  O402  1  0.34758220  0.41504228  0.26271729  1  -1.205448  0.078612  -0.308513  -0.555356  0.054555  2.364405  0.037
O  O403  1  0.84758596  0.08495822  0.23728403  1  -1.205392  0.078619  -0.308591  -0.555462  0.054558  2.364424  0.037
O  O404  1  0.90529197  0.51656182  0.64517835  1  -1.186864  0.052453  -0.29526  -0.45899  0.03591  2.353232  0.022
O  O405  1  0.40528464  0.98342772  0.85481829  1  -1.186881  0.052465  -0.295396  -0.459137  0.035913  2.353294  0.022
O  O406  1  0.09470644  0.48342848  0.35481951  1  -1.186863  0.052465  -0.295374  -0.459151  0.035914  2.352925  0.022
O  O407  1  0.59470452  0.01656782  0.14518355  1  -1.186813  0.052467  -0.295374  -0.459118  0.035919  2.353021  0.022
