# generated using pymatgen
data_ZnSiH40C52N4(Cl8F3)2
_symmetry_space_group_name_H-M   'P 1'
_cell_length_a   15.29835525
_cell_length_b   19.92941894
_cell_length_c   19.92941410
_cell_angle_alpha   90.00000526
_cell_angle_beta   90.00004926
_cell_angle_gamma   90.00002537
_symmetry_Int_Tables_number   1
_chemical_formula_structural   ZnSiH40C52N4(Cl8F3)2
_chemical_formula_sum   'Zn4 Si4 H160 C208 N16 Cl64 F24'
_cell_volume   6076.22586834
_cell_formula_units_Z   4
loop_
 _symmetry_equiv_pos_site_id
 _symmetry_equiv_pos_as_xyz
  1  'x, y, z'
loop_
 _atom_site_type_symbol
 _atom_site_label
 _atom_site_symmetry_multiplicity
 _atom_site_fract_x
 _atom_site_fract_y
 _atom_site_fract_z
 _atom_site_occupancy
 _atom_site_pbe_bader_charge
 _atom_site_pbe_bader_spin_density
 _atom_site_pbe_cm5_charge
 _atom_site_pbe_ddec_charge
 _atom_site_pbe_ddec_spin_density
 _atom_site_pbe_ddec_sum_bond_order
 _atom_site_pbe_magmom
Zn  Zn0  1  0.60064256  0.25000038  0.25000003  1  1.276888  0  0.71408  0.744463  0  2.412252  0
Zn  Zn1  1  0.89935745  0.75000048  0.74999980  1  1.276914  0  0.714072  0.744445  0  2.412285  0
Zn  Zn2  1  0.39935599  0.74999989  0.75000014  1  1.276895  0  0.714042  0.744394  0  2.412295  0
Zn  Zn3  1  0.10064306  0.25000029  0.24999987  1  1.276919  0  0.714034  0.744312  0  2.412296  0
Si  Si4  1  0.35132360  0.24999933  0.24999895  1  3.220987  0  0.271956  1.727287  0  3.933979  0
Si  Si5  1  0.14867871  0.75000085  0.75000056  1  3.221122  0  0.271932  1.727289  0  3.934037  0
Si  Si6  1  0.64867887  0.74999993  0.75000072  1  3.221211  0  0.271874  1.726939  0  3.934751  0
Si  Si7  1  0.85132049  0.25000092  0.25000012  1  3.221203  0  0.271805  1.72693  0  3.934771  0
H  H8  1  0.71871408  0.35955351  0.19605820  1  0.153265  0  0.110633  0.092914  0  1.030944  0
H  H9  1  0.71871407  0.14044578  0.30394194  1  0.153225  0  0.110645  0.092926  0  1.030919  0
H  H10  1  0.71871415  0.30394176  0.35955372  1  0.153219  0  0.110643  0.092928  0  1.03092  0
H  H11  1  0.71871400  0.19605853  0.14044592  1  0.153281  0  0.110621  0.092887  0  1.030992  0
H  H12  1  0.78128587  0.64044633  0.69605788  1  0.153165  0  0.110641  0.092916  0  1.030923  0
H  H13  1  0.78128599  0.85955358  0.80394164  1  0.153288  0  0.11064  0.092931  0  1.030929  0
H  H14  1  0.78128532  0.69605810  0.85955391  1  0.153221  0  0.110652  0.09293  0  1.030873  0
H  H15  1  0.78128589  0.80394232  0.64044612  1  0.153259  0  0.110636  0.092917  0  1.030932  0
H  H16  1  0.28128578  0.64044675  0.80394247  1  0.15326  0  0.110652  0.092925  0  1.030874  0
H  H17  1  0.28128578  0.85955399  0.69605772  1  0.153174  0  0.110636  0.092918  0  1.030944  0
H  H18  1  0.28128635  0.69605750  0.64044645  1  0.153239  0  0.11064  0.092919  0  1.030928  0
H  H19  1  0.28128520  0.80394224  0.85955375  1  0.153277  0  0.110648  0.092929  0  1.030911  0
H  H20  1  0.21871398  0.35955394  0.30394179  1  0.153183  0  0.110639  0.092927  0  1.030919  0
H  H21  1  0.21871517  0.14044619  0.19605802  1  0.153261  0  0.110659  0.092944  0  1.030895  0
H  H22  1  0.21871453  0.30394217  0.14044576  1  0.153269  0  0.110652  0.092943  0  1.030881  0
H  H23  1  0.21871462  0.19605845  0.35955355  1  0.153265  0  0.110645  0.092934  0  1.030896  0
H  H24  1  0.72564884  0.48398665  0.19110623  1  0.077647  0  0.088575  0.093836  0  1.063272  0
H  H25  1  0.72564943  0.01601365  0.30889392  1  0.077652  0  0.088538  0.093803  0  1.063235  0
H  H26  1  0.72564896  0.30889375  0.48398638  1  0.077655  0  0.088542  0.093809  0  1.063229  0
H  H27  1  0.72564931  0.19110605  0.01601326  1  0.077637  0  0.088565  0.093824  0  1.063288  0
H  H28  1  0.77435175  0.51601370  0.69110589  1  0.077664  0  0.088548  0.093799  0  1.063249  0
H  H29  1  0.77435130  0.98398671  0.80889413  1  0.077648  0  0.088576  0.093847  0  1.063268  0
H  H30  1  0.77435131  0.69110562  0.98398657  1  0.077655  0  0.088542  0.093803  0  1.06324  0
H  H31  1  0.77435109  0.80889429  0.51601396  1  0.077658  0  0.088543  0.093811  0  1.063244  0
H  H32  1  0.27435101  0.51601362  0.80889394  1  0.077646  0  0.088569  0.09382  0  1.063307  0
H  H33  1  0.27435108  0.98398712  0.69110575  1  0.077638  0  0.088564  0.093815  0  1.063297  0
H  H34  1  0.27435155  0.69110552  0.51601379  1  0.077655  0  0.088577  0.093844  0  1.063275  0
H  H35  1  0.27435119  0.80889422  0.98398641  1  0.077648  0  0.088545  0.093798  0  1.063233  0
H  H36  1  0.22564941  0.48398657  0.30889377  1  0.077639  0  0.08856  0.093827  0  1.063294  0
H  H37  1  0.22564986  0.01601406  0.19110504  1  0.077642  0  0.088558  0.093841  0  1.063276  0
H  H38  1  0.22564919  0.30889364  0.01601361  1  0.077651  0  0.088563  0.093846  0  1.063288  0
H  H39  1  0.22564942  0.19110548  0.48398621  1  0.077644  0  0.088568  0.093835  0  1.06327  0
H  H40  1  0.48314833  0.48860441  0.30227801  1  0.085478  0  0.086953  0.091667  0  1.073181  0
H  H41  1  0.48314748  0.01139531  0.19772248  1  0.085473  0  0.086956  0.091681  0  1.073163  0
H  H42  1  0.48314769  0.19772288  0.48860510  1  0.085456  0  0.086955  0.09166  0  1.07319  0
H  H43  1  0.48314876  0.30227784  0.01139539  1  0.085482  0  0.086949  0.09166  0  1.073179  0
H  H44  1  0.01685208  0.51139528  0.80227750  1  0.085477  0  0.086941  0.091656  0  1.073171  0
H  H45  1  0.01685151  0.98860487  0.69772252  1  0.085476  0  0.086958  0.091669  0  1.073188  0
H  H46  1  0.01685162  0.80227783  0.98860512  1  0.085472  0  0.086956  0.091688  0  1.073164  0
H  H47  1  0.01685197  0.69772233  0.51139540  1  0.085461  0  0.086949  0.091683  0  1.07316  0
H  H48  1  0.51685152  0.51139536  0.69772216  1  0.085488  0  0.086958  0.091676  0  1.073148  0
H  H49  1  0.51685172  0.98860496  0.80227769  1  0.085477  0  0.086952  0.091677  0  1.073152  0
H  H50  1  0.51685216  0.80227789  0.51139507  1  0.085467  0  0.086947  0.091668  0  1.073164  0
H  H51  1  0.51685174  0.69772243  0.98860478  1  0.085483  0  0.086954  0.091682  0  1.073155  0
H  H52  1  0.98314777  0.48860449  0.19772217  1  0.085449  0  0.086955  0.091683  0  1.073199  0
H  H53  1  0.98314769  0.01139540  0.30227715  1  0.085487  0  0.086923  0.091657  0  1.073166  0
H  H54  1  0.98314758  0.19772244  0.01139505  1  0.085452  0  0.086948  0.091685  0  1.073166  0
H  H55  1  0.98314788  0.30227744  0.48860477  1  0.085462  0  0.08696  0.091695  0  1.073177  0
H  H56  1  0.48393007  0.36380950  0.29999996  1  0.12806  0  0.112159  0.094014  0  1.02114  0
H  H57  1  0.48392930  0.13619072  0.20000002  1  0.128049  0  0.112159  0.09402  0  1.021147  0
H  H58  1  0.48393006  0.20000091  0.36380916  1  0.128056  0  0.112157  0.094015  0  1.021237  0
H  H59  1  0.48392931  0.29999980  0.13619083  1  0.12805  0  0.112164  0.094018  0  1.021135  0
H  H60  1  0.01607033  0.63619069  0.79999997  1  0.128058  0  0.112154  0.094009  0  1.02117  0
H  H61  1  0.01607034  0.86380896  0.70000055  1  0.128053  0  0.112147  0.093998  0  1.021204  0
H  H62  1  0.01607042  0.79999928  0.86380918  1  0.128056  0  0.112144  0.093993  0  1.021218  0
H  H63  1  0.01607026  0.70000087  0.63619134  1  0.128051  0  0.112146  0.093994  0  1.021211  0
H  H64  1  0.51606978  0.63619127  0.70000021  1  0.128057  0  0.112153  0.094017  0  1.021128  0
H  H65  1  0.51606990  0.86380905  0.79999964  1  0.128058  0  0.112166  0.09401  0  1.021152  0
H  H66  1  0.51606914  0.79999986  0.63619051  1  0.128061  0  0.112124  0.094  0  1.021225  0
H  H67  1  0.51606989  0.70000097  0.86380884  1  0.12806  0  0.112157  0.094015  0  1.021188  0
H  H68  1  0.98392952  0.36380958  0.20000020  1  0.128056  0  0.112126  0.09401  0  1.021203  0
H  H69  1  0.98393016  0.13619080  0.29999962  1  0.128073  0  0.112171  0.094038  0  1.02114  0
H  H70  1  0.98392944  0.20000099  0.13619049  1  0.128063  0  0.112146  0.094026  0  1.021224  0
H  H71  1  0.98392959  0.29999940  0.36380933  1  0.12806  0  0.112148  0.094001  0  1.021206  0
H  H72  1  0.65785398  0.58018663  0.14645212  1  0.071783  0  0.087749  0.089448  0  1.044389  0
H  H73  1  0.65785354  0.91981320  0.35354803  1  0.071777  0  0.087751  0.089455  0  1.044431  0
H  H74  1  0.65785350  0.35354783  0.58018739  1  0.071791  0  0.087746  0.08946  0  1.044424  0
H  H75  1  0.65785363  0.14645149  0.91981352  1  0.071893  0  0.087785  0.089552  0  1.044429  0
H  H76  1  0.84214657  0.41981322  0.64645232  1  0.071922  0  0.087746  0.08946  0  1.044427  0
H  H77  1  0.84214593  0.08018717  0.85354820  1  0.071773  0  0.087782  0.089552  0  1.044412  0
H  H78  1  0.84214632  0.64645201  0.08018681  1  0.071778  0  0.087781  0.089518  0  1.044433  0
H  H79  1  0.84214591  0.85354788  0.41981296  1  0.07178  0  0.08775  0.089487  0  1.044368  0
H  H80  1  0.34214588  0.41981314  0.85354805  1  0.071906  0  0.087781  0.089545  0  1.044423  0
H  H81  1  0.34214632  0.08018657  0.64645214  1  0.071911  0  0.087744  0.089443  0  1.044398  0
H  H82  1  0.34214635  0.64645244  0.41981279  1  0.071791  0  0.087755  0.089475  0  1.044384  0
H  H83  1  0.34214557  0.85354778  0.08018665  1  0.07179  0  0.087757  0.089468  0  1.044374  0
H  H84  1  0.15785328  0.58018756  0.35354785  1  0.071791  0  0.087749  0.089463  0  1.044417  0
H  H85  1  0.15785326  0.91981310  0.14645197  1  0.071781  0  0.087755  0.089452  0  1.044445  0
H  H86  1  0.15785353  0.35354826  0.91981286  1  0.071781  0  0.087742  0.08947  0  1.04439  0
H  H87  1  0.15785394  0.14645189  0.58018721  1  0.071775  0  0.087778  0.089527  0  1.044437  0
H  H88  1  0.66344742  0.70428407  0.14820431  1  0.078633  0  0.09576  0.099734  0  1.012609  0
H  H89  1  0.66344756  0.79571625  0.35179534  1  0.078627  0  0.095743  0.099706  0  1.012662  0
H  H90  1  0.66344698  0.35179515  0.70428436  1  0.078634  0  0.095755  0.099718  0  1.012648  0
H  H91  1  0.66344697  0.14820417  0.79571654  1  0.078612  0  0.095749  0.099702  0  1.012684  0
H  H92  1  0.83655247  0.29571527  0.64820500  1  0.078644  0  0.095751  0.099713  0  1.012654  0
H  H93  1  0.83655256  0.20428411  0.85179552  1  0.078617  0  0.09577  0.09975  0  1.012659  0
H  H94  1  0.83655232  0.64820470  0.20428378  1  0.078628  0  0.095744  0.099706  0  1.012654  0
H  H95  1  0.83655243  0.85179519  0.29571548  1  0.078638  0  0.09575  0.099709  0  1.012667  0
H  H96  1  0.33655243  0.29571569  0.85179536  1  0.078624  0  0.09574  0.099696  0  1.012655  0
H  H97  1  0.33655229  0.20428402  0.64820483  1  0.078633  0  0.095745  0.099712  0  1.01265  0
H  H98  1  0.33655222  0.64820512  0.29571581  1  0.078643  0  0.09574  0.099695  0  1.012651  0
H  H99  1  0.33655223  0.85179510  0.20428363  1  0.078636  0  0.095751  0.099717  0  1.01265  0
H  H100  1  0.16344738  0.70428450  0.35179517  1  0.078628  0  0.095753  0.099727  0  1.012642  0
H  H101  1  0.16344729  0.79571616  0.14820415  1  0.078624  0  0.095757  0.09974  0  1.012608  0
H  H102  1  0.16344753  0.35179507  0.79571589  1  0.07863  0  0.095742  0.099707  0  1.012647  0
H  H103  1  0.16344807  0.14820408  0.70428419  1  0.078627  0  0.095749  0.099712  0  1.012639  0
H  H104  1  0.56507029  0.70402515  0.35064224  1  0.069148  0  0.092901  0.096355  0  1.03715  0
H  H105  1  0.56507021  0.79597514  0.14935685  1  0.069114  0  0.092884  0.096353  0  1.037123  0
H  H106  1  0.56507033  0.14935672  0.70402490  1  0.069107  0  0.092909  0.096379  0  1.037154  0
H  H107  1  0.56506979  0.35064257  0.79597493  1  0.069128  0  0.092896  0.096378  0  1.037096  0
H  H108  1  0.93492983  0.29597421  0.85064299  1  0.069144  0  0.092928  0.096378  0  1.037185  0
H  H109  1  0.93492969  0.20402520  0.64935709  1  0.069115  0  0.092892  0.096359  0  1.037117  0
H  H110  1  0.93493028  0.85064263  0.20402541  1  0.069146  0  0.092885  0.096345  0  1.037136  0
H  H111  1  0.93493027  0.64935779  0.29597442  1  0.069165  0  0.092928  0.0964  0  1.037203  0
H  H112  1  0.43492890  0.29597411  0.64935743  1  0.069138  0  0.092906  0.096367  0  1.037103  0
H  H113  1  0.43492899  0.20402513  0.85064282  1  0.069113  0  0.092914  0.096388  0  1.03716  0
H  H114  1  0.43493017  0.85064255  0.29597476  1  0.069149  0  0.092913  0.096392  0  1.037177  0
H  H115  1  0.43493072  0.64935720  0.20402574  1  0.069162  0  0.092915  0.096371  0  1.037111  0
H  H116  1  0.06507068  0.70402506  0.14935718  1  0.0691  0  0.092913  0.096377  0  1.037165  0
H  H117  1  0.06507017  0.79597507  0.35064258  1  0.06911  0  0.092888  0.096357  0  1.037116  0
H  H118  1  0.06507023  0.14935663  0.79597526  1  0.069105  0  0.092915  0.096394  0  1.037168  0
H  H119  1  0.06507024  0.35064248  0.70402575  1  0.069171  0  0.092911  0.096358  0  1.037142  0
H  H120  1  0.55905131  0.58043148  0.34912889  1  0.036401  0  0.093408  0.097759  0  1.019916  0
H  H121  1  0.55905195  0.91956781  0.15087019  1  0.036395  0  0.093398  0.097749  0  1.019986  0
H  H122  1  0.55905132  0.15087055  0.58043171  1  0.03638  0  0.09339  0.097754  0  1.019979  0
H  H123  1  0.55905156  0.34912873  0.91956813  1  0.03641  0  0.09339  0.097746  0  1.020012  0
H  H124  1  0.94094815  0.41956838  0.84912966  1  0.036373  0  0.093388  0.097736  0  1.020001  0
H  H125  1  0.94094795  0.08043154  0.65087043  1  0.0364  0  0.093402  0.097772  0  1.019979  0
H  H126  1  0.94094850  0.84912929  0.08043172  1  0.036394  0  0.09339  0.097741  0  1.019995  0
H  H127  1  0.94094798  0.65087064  0.41956862  1  0.036395  0  0.093398  0.097747  0  1.019975  0
H  H128  1  0.44094789  0.41956828  0.65087078  1  0.036396  0  0.093377  0.097732  0  1.020033  0
H  H129  1  0.44094855  0.08043146  0.84912948  1  0.036392  0  0.093401  0.097764  0  1.019921  0
H  H130  1  0.44094788  0.84912922  0.41956846  1  0.036393  0  0.093377  0.097733  0  1.020026  0
H  H131  1  0.44094894  0.65087104  0.08043204  1  0.036407  0  0.0934  0.097765  0  1.019968  0
H  H132  1  0.05905170  0.58043139  0.15087051  1  0.036389  0  0.093391  0.097732  0  1.019988  0
H  H133  1  0.05905125  0.91956823  0.34912924  1  0.036402  0  0.093389  0.097717  0  1.019979  0
H  H134  1  0.05905135  0.15087048  0.91956795  1  0.036382  0  0.093401  0.09778  0  1.019934  0
H  H135  1  0.05905187  0.34912913  0.58043155  1  0.036411  0  0.093371  0.097695  0  1.020037  0
H  H136  1  0.34104549  0.34848791  0.40827003  1  0.213027  0  0.109765  0.131597  0  0.999322  0
H  H137  1  0.34104525  0.15151276  0.09172986  1  0.213031  0  0.109838  0.1317  0  0.999365  0
H  H138  1  0.34104538  0.09172979  0.34848753  1  0.213031  0  0.109773  0.131629  0  0.999278  0
H  H139  1  0.34104536  0.40826937  0.15151286  1  0.213007  0  0.109812  0.131652  0  0.999441  0
H  H140  1  0.15895439  0.65151229  0.90827014  1  0.21303  0  0.109783  0.131618  0  0.999382  0
H  H141  1  0.15895427  0.84848791  0.59172998  1  0.213025  0  0.109765  0.131594  0  0.999343  0
H  H142  1  0.15895443  0.90826940  0.84848766  1  0.213011  0  0.109819  0.131661  0  0.999429  0
H  H143  1  0.15895357  0.59173030  0.65151246  1  0.213015  0  0.109825  0.131683  0  0.99943  0
H  H144  1  0.65895436  0.65151236  0.59173014  1  0.213017  0  0.109814  0.131688  0  0.999405  0
H  H145  1  0.65895394  0.84848751  0.90826981  1  0.213021  0  0.109822  0.1317  0  0.999399  0
H  H146  1  0.65895382  0.90826997  0.65151214  1  0.213023  0  0.109806  0.13167  0  0.999375  0
H  H147  1  0.65895384  0.59173040  0.84848731  1  0.213008  0  0.109851  0.131707  0  0.999476  0
H  H148  1  0.84104547  0.34848748  0.09173003  1  0.213021  0  0.109817  0.131666  0  0.99933  0
H  H149  1  0.84104559  0.15151286  0.40826969  1  0.213014  0  0.10982  0.131677  0  0.999413  0
H  H150  1  0.84104543  0.09173037  0.15151251  1  0.213023  0  0.109827  0.131681  0  0.999405  0
H  H151  1  0.84104563  0.40826946  0.34848771  1  0.213012  0  0.109805  0.131646  0  0.999378  0
H  H152  1  0.37383930  0.45905612  0.51554265  1  0.155085  0  0.095578  0.083409  0  1.026645  0
H  H153  1  0.37383944  0.04094410  0.98445706  1  0.155178  0  0.095557  0.083373  0  1.026653  0
H  H154  1  0.37383942  0.98445628  0.45905581  1  0.155217  0  0.095554  0.083384  0  1.026675  0
H  H155  1  0.37383971  0.51554244  0.04094415  1  0.15511  0  0.095566  0.083375  0  1.026691  0
H  H156  1  0.12616079  0.54094404  0.01554292  1  0.155082  0  0.095571  0.083394  0  1.026662  0
H  H157  1  0.12615986  0.95905610  0.48445738  1  0.155102  0  0.095581  0.083406  0  1.026671  0
H  H158  1  0.12616051  0.01554242  0.95905634  1  0.155103  0  0.09558  0.083395  0  1.026671  0
H  H159  1  0.12615976  0.48445722  0.54094371  1  0.155098  0  0.095573  0.083386  0  1.026659  0
H  H160  1  0.62616055  0.54094365  0.48445752  1  0.155093  0  0.095582  0.083407  0  1.026667  0
H  H161  1  0.62616041  0.95905566  0.01554311  1  0.155098  0  0.09557  0.083396  0  1.026648  0
H  H162  1  0.62615978  0.01554248  0.54094386  1  0.155109  0  0.095583  0.083395  0  1.026655  0
H  H163  1  0.62616015  0.48445783  0.95905602  1  0.155123  0  0.095549  0.083325  0  1.026684  0
H  H164  1  0.87383972  0.45905572  0.98445675  1  0.155086  0  0.095573  0.083385  0  1.026665  0
H  H165  1  0.87383868  0.04094366  0.51554279  1  0.155241  0  0.095571  0.083401  0  1.026679  0
H  H166  1  0.87383934  0.98445635  0.04094384  1  0.155201  0  0.095557  0.08339  0  1.026668  0
H  H167  1  0.87383944  0.51554355  0.45905646  1  0.155208  0  0.095562  0.083394  0  1.026664  0
C  C168  1  0.66694709  0.39017457  0.21783604  1  0.478081  0  0.040808  0.095543  0  3.942116  0
C  C169  1  0.66694640  0.10982470  0.28216507  1  0.478142  0  0.040813  0.09561  0  3.942096  0
C  C170  1  0.66694585  0.28216491  0.39017477  1  0.478175  0  0.040807  0.095575  0  3.942105  0
C  C171  1  0.66694698  0.21783587  0.10982534  1  0.47809  0  0.040845  0.095622  0  3.94212  0
C  C172  1  0.83305418  0.60982528  0.71783525  1  0.478179  0  0.04084  0.095636  0  3.942131  0
C  C173  1  0.83305299  0.89017515  0.78216430  1  0.478076  0  0.040804  0.095535  0  3.942121  0
C  C174  1  0.83305366  0.71783496  0.89017500  1  0.478165  0  0.040808  0.09561  0  3.942049  0
C  C175  1  0.83305417  0.78216447  0.60982556  1  0.47812  0  0.040881  0.095643  0  3.942135  0
C  C176  1  0.33305276  0.60982520  0.78216362  1  0.478068  0  0.040825  0.095595  0  3.942068  0
C  C177  1  0.33305346  0.89017557  0.71783460  1  0.478149  0  0.04077  0.095512  0  3.942179  0
C  C178  1  0.33305400  0.71783536  0.60982540  1  0.478107  0  0.040808  0.09558  0  3.942138  0
C  C179  1  0.33305221  0.78216440  0.89017484  1  0.478046  0  0.040784  0.095523  0  3.942085  0
C  C180  1  0.16694632  0.39017499  0.28216441  1  0.478164  0  0.040769  0.095522  0  3.942145  0
C  C181  1  0.16694751  0.10982462  0.21783537  1  0.478077  0  0.04078  0.095548  0  3.942089  0
C  C182  1  0.16694619  0.28216531  0.10982467  1  0.478114  0  0.040781  0.095527  0  3.942119  0
C  C183  1  0.16694699  0.21783580  0.39017461  1  0.478097  0  0.040786  0.095494  0  3.942092  0
C  C184  1  0.67040892  0.45972452  0.21550231  1  -0.04636  0  -0.099467  -0.189647  0  3.983845  0
C  C185  1  0.67040819  0.04027526  0.28449830  1  -0.046371  0  -0.099473  -0.189704  0  3.983863  0
C  C186  1  0.67040836  0.28449814  0.45972474  1  -0.0464  0  -0.099458  -0.189686  0  3.983819  0
C  C187  1  0.67040876  0.21550213  0.04027487  1  -0.046367  0  -0.09948  -0.189682  0  3.983884  0
C  C188  1  0.82959170  0.54027584  0.71550151  1  -0.046363  0  -0.099496  -0.189715  0  3.983894  0
C  C189  1  0.82959120  0.95972460  0.78449754  1  -0.046378  0  -0.099492  -0.189701  0  3.983904  0
C  C190  1  0.82959189  0.71550173  0.95972496  1  -0.046362  0  -0.09947  -0.189702  0  3.983827  0
C  C191  1  0.82959167  0.78449770  0.54027560  1  -0.046361  0  -0.099513  -0.189773  0  3.983919  0
C  C192  1  0.32959093  0.54027575  0.78449786  1  -0.046366  0  -0.09951  -0.18969  0  3.98391  0
C  C193  1  0.32959166  0.95972451  0.71550137  1  -0.046376  0  -0.099449  -0.18963  0  3.983939  0
C  C194  1  0.32959150  0.71550213  0.54027543  1  -0.046352  0  -0.099481  -0.189685  0  3.98383  0
C  C195  1  0.32959175  0.78449763  0.95972480  1  -0.046319  0  -0.099447  -0.189631  0  3.983796  0
C  C196  1  0.17040815  0.45972494  0.28449866  1  -0.046359  0  -0.099482  -0.189694  0  3.983905  0
C  C197  1  0.17040865  0.04027517  0.21550163  1  -0.046382  0  -0.099518  -0.18978  0  3.983954  0
C  C198  1  0.17040797  0.28449854  0.04027521  1  -0.046371  0  -0.099509  -0.189757  0  3.983964  0
C  C199  1  0.17040883  0.21550207  0.45972457  1  -0.04637  0  -0.099467  -0.18962  0  3.983902  0
C  C200  1  0.60477771  0.49760619  0.24677617  1  -0.058895  0  0.002937  0.10588  0  4.014298  0
C  C201  1  0.60477692  0.00239356  0.25322440  1  -0.058896  0  0.002933  0.105878  0  4.01434  0
C  C202  1  0.60477648  0.25322477  0.49760641  1  -0.058853  0  0.002928  0.105897  0  4.014275  0
C  C203  1  0.60477816  0.24677599  0.00239366  1  -0.058899  0  0.002928  0.105839  0  4.014337  0
C  C204  1  0.89522294  0.50239416  0.74677591  1  -0.059084  0  0.002955  0.105893  0  4.014279  0
C  C205  1  0.89522244  0.99760579  0.75322419  1  -0.059094  0  0.002938  0.105847  0  4.014307  0
C  C206  1  0.89522315  0.74677561  0.99760618  1  -0.058902  0  0.002927  0.105879  0  4.014315  0
C  C207  1  0.89522223  0.75322384  0.50239393  1  -0.058895  0  0.002933  0.105903  0  4.014271  0
C  C208  1  0.39522279  0.50239408  0.75322400  1  -0.059093  0  0.002936  0.105824  0  4.014315  0
C  C209  1  0.39522228  0.99760621  0.74677627  1  -0.059097  0  0.002951  0.105878  0  4.01427  0
C  C210  1  0.39522207  0.74677650  0.50239376  1  -0.058904  0  0.00292  0.105859  0  4.014326  0
C  C211  1  0.39522235  0.75322378  0.99760601  1  -0.059106  0  0.002945  0.105892  0  4.014274  0
C  C212  1  0.10477756  0.49760661  0.25322376  1  -0.05889  0  0.002987  0.105915  0  4.014323  0
C  C213  1  0.10477807  0.00239348  0.24677598  1  -0.058891  0  0.002975  0.105953  0  4.014291  0
C  C214  1  0.10477735  0.25322416  0.00239349  1  -0.058903  0  0.002976  0.105915  0  4.014298  0
C  C215  1  0.10477763  0.24677542  0.49760625  1  -0.058887  0  0.003004  0.105889  0  4.014308  0
C  C216  1  0.53683120  0.46222331  0.27807912  1  0.028536  0  -0.099244  -0.193651  0  3.994508  0
C  C217  1  0.53683039  0.03777642  0.22192140  1  0.028525  0  -0.099229  -0.193611  0  3.994496  0
C  C218  1  0.53682993  0.22192229  0.46222401  1  0.028534  0  -0.099211  -0.193593  0  3.994491  0
C  C219  1  0.53683101  0.27807895  0.03777651  1  0.028544  0  -0.099241  -0.193623  0  3.994498  0
C  C220  1  0.96316949  0.53777654  0.77807891  1  0.028734  0  -0.099242  -0.193642  0  3.994529  0
C  C221  1  0.96316958  0.96222343  0.72192123  1  0.028739  0  -0.099255  -0.193642  0  3.99449  0
C  C222  1  0.96316901  0.77807859  0.96222382  1  0.028533  0  -0.099229  -0.19366  0  3.994559  0
C  C223  1  0.96316941  0.72192139  0.53777632  1  0.028551  0  -0.099248  -0.19369  0  3.994416  0
C  C224  1  0.46316865  0.53777695  0.72192105  1  0.028746  0  -0.099222  -0.193604  0  3.994485  0
C  C225  1  0.46316880  0.96222335  0.77807877  1  0.028749  0  -0.099246  -0.193664  0  3.9945  0
C  C226  1  0.46316862  0.77807949  0.53777616  1  0.02855  0  -0.099203  -0.193623  0  3.994493  0
C  C227  1  0.46316884  0.72192132  0.96222315  1  0.028744  0  -0.099251  -0.193681  0  3.994521  0
C  C228  1  0.03683036  0.46222423  0.22192126  1  0.028522  0  -0.099259  -0.193704  0  3.994563  0
C  C229  1  0.03683092  0.03777633  0.27807843  1  0.02853  0  -0.099185  -0.193655  0  3.99455  0
C  C230  1  0.03683084  0.22192118  0.03777584  1  0.028537  0  -0.099258  -0.193705  0  3.994576  0
C  C231  1  0.03683044  0.27807788  0.46222385  1  0.028547  0  -0.099281  -0.193714  0  3.994555  0
C  C232  1  0.53690766  0.39259409  0.27733850  1  0.447145  0  0.041548  0.097179  0  3.938429  0
C  C233  1  0.53690624  0.10740514  0.22266202  1  0.447138  0  0.041537  0.097138  0  3.938442  0
C  C234  1  0.53690637  0.22266290  0.39259377  1  0.447158  0  0.04152  0.097116  0  3.93855  0
C  C235  1  0.53690688  0.27733784  0.10740576  1  0.44715  0  0.041539  0.097158  0  3.938458  0
C  C236  1  0.96309303  0.60740577  0.77733780  1  0.447155  0  0.041554  0.097187  0  3.938445  0
C  C237  1  0.96309308  0.89259421  0.72266235  1  0.447147  0  0.04157  0.097205  0  3.938481  0
C  C238  1  0.96309380  0.77733747  0.89259458  1  0.447156  0  0.041565  0.097201  0  3.938473  0
C  C239  1  0.96309297  0.72266251  0.60740657  1  0.447162  0  0.04156  0.097176  0  3.938417  0
C  C240  1  0.46309219  0.60740618  0.72266116  1  0.447154  0  0.041547  0.097175  0  3.938408  0
C  C241  1  0.46309296  0.89259413  0.77733765  1  0.447156  0  0.041542  0.097185  0  3.938403  0
C  C242  1  0.46309283  0.77733787  0.60740640  1  0.447163  0  0.041568  0.097204  0  3.938466  0
C  C243  1  0.46309297  0.72266243  0.89259441  1  0.447143  0  0.041566  0.097198  0  3.938542  0
C  C244  1  0.03690682  0.39259450  0.22266237  1  0.447172  0  0.041606  0.097256  0  3.938516  0
C  C245  1  0.03690742  0.10740506  0.27733782  1  0.44714  0  0.041506  0.097118  0  3.938498  0
C  C246  1  0.03690671  0.22266280  0.10740559  1  0.447166  0  0.041561  0.097164  0  3.938581  0
C  C247  1  0.03690688  0.27733726  0.39259411  1  0.447159  0  0.041549  0.097184  0  3.938526  0
C  C248  1  0.60806436  0.57136850  0.24762166  1  -0.02093  0  -0.013944  0.057113  0  4.00706  0
C  C249  1  0.60806382  0.92863130  0.25237846  1  -0.020891  0  -0.013963  0.057091  0  4.0071  0
C  C250  1  0.60806380  0.25237829  0.57136874  1  -0.02089  0  -0.013943  0.057156  0  4.007049  0
C  C251  1  0.60806596  0.24762151  0.92863112  1  -0.020825  0  -0.013958  0.057143  0  4.007063  0
C  C252  1  0.89193564  0.42863085  0.74762189  1  -0.020879  0  -0.013936  0.057182  0  4.007057  0
C  C253  1  0.89193489  0.07136905  0.75237816  1  -0.020809  0  -0.01395  0.057218  0  4.007023  0
C  C254  1  0.89193535  0.74762155  0.07136871  1  -0.020925  0  -0.013976  0.057124  0  4.007027  0
C  C255  1  0.89193556  0.75237785  0.42863109  1  -0.020934  0  -0.013923  0.057213  0  4.007069  0
C  C256  1  0.39193549  0.42863126  0.75237851  1  -0.020892  0  -0.01395  0.057159  0  4.007093  0
C  C257  1  0.39193538  0.07136897  0.74762221  1  -0.020944  0  -0.013934  0.057227  0  4.007029  0
C  C258  1  0.39193540  0.74762198  0.42863143  1  -0.020938  0  -0.013965  0.057136  0  4.007072  0
C  C259  1  0.39193520  0.75237825  0.07136905  1  -0.020819  0  -0.013952  0.057142  0  4.007049  0
C  C260  1  0.10806421  0.57136892  0.25237828  1  -0.020897  0  -0.01393  0.057183  0  4.007066  0
C  C261  1  0.10806496  0.92863122  0.24762151  1  -0.020817  0  -0.013966  0.05709  0  4.00704  0
C  C262  1  0.10806450  0.25237822  0.92863096  1  -0.020926  0  -0.01391  0.057293  0  4.006992  0
C  C263  1  0.10806495  0.24762192  0.57136908  1  -0.020821  0  -0.013987  0.05713  0  4.007006  0
C  C264  1  0.63806691  0.60734196  0.19149257  1  -0.050287  0  -0.095543  -0.12645  0  3.982304  0
C  C265  1  0.63806641  0.89265836  0.30850756  1  -0.050296  0  -0.095509  -0.126441  0  3.982322  0
C  C266  1  0.63806575  0.30850737  0.60734171  1  -0.050283  0  -0.09559  -0.126587  0  3.982375  0
C  C267  1  0.63806653  0.19149244  0.89265918  1  -0.050436  0  -0.095574  -0.126617  0  3.982459  0
C  C268  1  0.86193434  0.39265839  0.69149278  1  -0.050408  0  -0.095585  -0.126576  0  3.982359  0
C  C269  1  0.86193366  0.10734150  0.80850775  1  -0.050296  0  -0.095578  -0.126629  0  3.982483  0
C  C270  1  0.86193344  0.69149246  0.10734166  1  -0.050301  0  -0.095538  -0.126529  0  3.982377  0
C  C271  1  0.86193298  0.80850743  0.39265863  1  -0.050278  0  -0.095579  -0.126581  0  3.982387  0
C  C272  1  0.36193359  0.39265881  0.80850760  1  -0.050419  0  -0.095568  -0.126621  0  3.982467  0
C  C273  1  0.36193410  0.10734141  0.69149261  1  -0.050416  0  -0.095535  -0.126485  0  3.982331  0
C  C274  1  0.36193344  0.69149289  0.39265846  1  -0.050276  0  -0.095556  -0.126545  0  3.982344  0
C  C275  1  0.36193332  0.80850683  0.10734200  1  -0.0503  0  -0.095541  -0.126491  0  3.982348  0
C  C276  1  0.13806617  0.60734188  0.30850739  1  -0.050285  0  -0.095591  -0.126573  0  3.982347  0
C  C277  1  0.13806619  0.89265827  0.19149242  1  -0.050302  0  -0.095506  -0.126412  0  3.982317  0
C  C278  1  0.13806641  0.30850730  0.89265851  1  -0.050293  0  -0.095589  -0.126628  0  3.982413  0
C  C279  1  0.13806687  0.19149234  0.60734154  1  -0.050294  0  -0.095565  -0.126606  0  3.982403  0
C  C280  1  0.64045543  0.67705498  0.19225577  1  -0.090658  0  -0.090254  -0.118979  0  3.982865  0
C  C281  1  0.64045619  0.82294484  0.30774487  1  -0.090645  0  -0.090212  -0.118887  0  3.982816  0
C  C282  1  0.64045494  0.30774469  0.67705575  1  -0.090573  0  -0.090168  -0.11883  0  3.982677  0
C  C283  1  0.64045629  0.19225412  0.82294463  1  -0.090907  0  -0.090196  -0.118845  0  3.982755  0
C  C284  1  0.85954452  0.32294386  0.69225547  1  -0.090922  0  -0.090186  -0.118829  0  3.982676  0
C  C285  1  0.85954454  0.17705552  0.80774556  1  -0.090579  0  -0.090234  -0.118931  0  3.982857  0
C  C286  1  0.85954368  0.69225516  0.17705519  1  -0.090982  0  -0.090204  -0.118877  0  3.982754  0
C  C287  1  0.85954380  0.80774473  0.32294408  1  -0.090989  0  -0.090194  -0.11888  0  3.982808  0
C  C288  1  0.35954443  0.32294429  0.80774490  1  -0.09091  0  -0.090177  -0.118817  0  3.982743  0
C  C289  1  0.35954497  0.17705543  0.69225530  1  -0.090585  0  -0.090217  -0.118919  0  3.982761  0
C  C290  1  0.35954426  0.69225508  0.32294391  1  -0.090939  0  -0.090188  -0.118811  0  3.982703  0
C  C291  1  0.35954421  0.80774464  0.17705503  1  -0.09098  0  -0.090223  -0.118898  0  3.982727  0
C  C292  1  0.14045534  0.67705590  0.30774470  1  -0.090582  0  -0.0902  -0.118884  0  3.98271  0
C  C293  1  0.14045531  0.82294475  0.19225511  1  -0.090643  0  -0.090225  -0.118965  0  3.982808  0
C  C294  1  0.14045552  0.30774511  0.82294447  1  -0.09058  0  -0.09021  -0.118872  0  3.982714  0
C  C295  1  0.14045606  0.19225503  0.67705558  1  -0.090988  0  -0.090192  -0.118842  0  3.982744  0
C  C296  1  0.61521027  0.71306506  0.24969799  1  -0.073926  0  -0.004774  0.073003  0  3.986728  0
C  C297  1  0.61521029  0.78693525  0.25030163  1  0.064045  0  -0.004815  0.072875  0  3.986659  0
C  C298  1  0.61520974  0.25030096  0.71306483  1  0.063963  0  -0.004817  0.072927  0  3.98663  0
C  C299  1  0.61520979  0.24969834  0.78693504  1  -0.07397  0  -0.004791  0.072944  0  3.986661  0
C  C300  1  0.88479104  0.28693529  0.74969871  1  0.063962  0  -0.004812  0.072877  0  3.986618  0
C  C301  1  0.88479102  0.21306510  0.75030184  1  -0.073881  0  -0.004752  0.072977  0  3.986687  0
C  C302  1  0.88479022  0.74969838  0.21306479  1  0.064041  0  -0.004791  0.072951  0  3.986591  0
C  C303  1  0.88479026  0.75030152  0.28693500  1  -0.073831  0  -0.004793  0.072979  0  3.986615  0
C  C304  1  0.38479023  0.28693521  0.75030168  1  -0.073902  0  -0.004792  0.072947  0  3.986621  0
C  C305  1  0.38479021  0.21306452  0.74969804  1  0.063974  0  -0.004805  0.072929  0  3.986556  0
C  C306  1  0.38479076  0.74969830  0.28693534  1  0.063981  0  -0.00477  0.072926  0  3.98665  0
C  C307  1  0.38479072  0.75030143  0.21306513  1  -0.073846  0  -0.004791  0.072936  0  3.98663  0
C  C308  1  0.11520946  0.71306498  0.25030146  1  -0.073989  0  -0.00479  0.072931  0  3.986613  0
C  C309  1  0.11521014  0.78693517  0.24969833  1  0.064028  0  -0.004824  0.07291  0  3.986638  0
C  C310  1  0.11520963  0.25030138  0.78693538  1  0.063977  0  -0.004816  0.072913  0  3.986636  0
C  C311  1  0.11521024  0.24969825  0.71306517  1  -0.073928  0  -0.004791  0.072945  0  3.986618  0
C  C312  1  0.58667716  0.67697319  0.30610355  1  -0.062313  0  -0.091175  -0.123727  0  3.987645  0
C  C313  1  0.58667714  0.82302762  0.19389555  1  -0.062295  0  -0.091183  -0.123738  0  3.987678  0
C  C314  1  0.58667788  0.19389540  0.67697294  1  -0.062296  0  -0.091169  -0.123722  0  3.987707  0
C  C315  1  0.58667734  0.30610339  0.82302691  1  -0.062307  0  -0.091204  -0.123814  0  3.987693  0
C  C316  1  0.91332356  0.32302667  0.80610480  1  -0.062329  0  -0.091197  -0.123717  0  3.987696  0
C  C317  1  0.91332281  0.17697273  0.69389577  1  -0.062296  0  -0.091196  -0.123725  0  3.987724  0
C  C318  1  0.91332335  0.80610445  0.17697293  1  -0.062334  0  -0.091189  -0.123747  0  3.987636  0
C  C319  1  0.91332405  0.69389597  0.32302689  1  -0.062338  0  -0.091216  -0.123821  0  3.987768  0
C  C320  1  0.41332204  0.32302658  0.69389611  1  -0.062302  0  -0.091207  -0.12377  0  3.987634  0
C  C321  1  0.41332206  0.17697265  0.80610463  1  -0.062279  0  -0.091192  -0.123753  0  3.987639  0
C  C322  1  0.41332393  0.80610437  0.32302723  1  -0.062347  0  -0.091207  -0.123759  0  3.987744  0
C  C323  1  0.41332316  0.69389638  0.17697326  1  -0.062336  0  -0.091203  -0.123775  0  3.98774  0
C  C324  1  0.08667825  0.67697310  0.19389537  1  -0.06228  0  -0.091179  -0.123716  0  3.987658  0
C  C325  1  0.08667770  0.82302754  0.30610390  1  -0.062289  0  -0.09116  -0.123745  0  3.987641  0
C  C326  1  0.08667715  0.19389532  0.82302724  1  -0.062298  0  -0.091157  -0.123707  0  3.987701  0
C  C327  1  0.08667776  0.30610380  0.67697328  1  -0.062183  0  -0.09118  -0.12375  0  3.987651  0
C  C328  1  0.58209625  0.60733393  0.30487270  1  0.036276  0  -0.093546  -0.125702  0  3.986753  0
C  C329  1  0.58209693  0.89266587  0.19512689  1  0.036221  0  -0.093539  -0.125677  0  3.986932  0
C  C330  1  0.58209696  0.19512624  0.60733366  1  0.036226  0  -0.093545  -0.125723  0  3.986829  0
C  C331  1  0.58209715  0.30487305  0.89266569  1  0.036167  0  -0.093529  -0.125649  0  3.986835  0
C  C332  1  0.91790381  0.39266643  0.80487396  1  0.036226  0  -0.093543  -0.125717  0  3.986793  0
C  C333  1  0.91790302  0.10733448  0.69512712  1  0.036157  0  -0.093559  -0.12578  0  3.986893  0
C  C334  1  0.91790354  0.80487310  0.10733415  1  0.036272  0  -0.093545  -0.12571  0  3.986853  0
C  C335  1  0.91790367  0.69512731  0.39266617  1  0.036269  0  -0.093551  -0.125714  0  3.986867  0
C  C336  1  0.41790294  0.39266634  0.69512696  1  0.036242  0  -0.093533  -0.125684  0  3.986885  0
C  C337  1  0.41790292  0.10733389  0.80487278  1  0.036266  0  -0.093565  -0.125778  0  3.986821  0
C  C338  1  0.41790355  0.80487303  0.39266601  1  0.036261  0  -0.093539  -0.12571  0  3.986905  0
C  C339  1  0.41790336  0.69512722  0.10733448  1  0.036162  0  -0.093541  -0.125704  0  3.986853  0
C  C340  1  0.08209735  0.60733384  0.19512671  1  0.036233  0  -0.09354  -0.125689  0  3.986835  0
C  C341  1  0.08209684  0.89266529  0.30487305  1  0.036156  0  -0.093546  -0.125615  0  3.986811  0
C  C342  1  0.08209631  0.19512617  0.89266602  1  0.036259  0  -0.093563  -0.125809  0  3.986766  0
C  C343  1  0.08209684  0.30487245  0.60733450  1  0.036023  0  -0.093546  -0.125628  0  3.986853  0
C  C344  1  0.32737020  0.37422273  0.45594278  1  0.205491  0  -0.020595  0.065191  0  3.840784  0
C  C345  1  0.32737055  0.12577793  0.04405660  1  0.205488  0  -0.020634  0.065121  0  3.840775  0
C  C346  1  0.32737006  0.04405705  0.37422285  1  0.205321  0  -0.020593  0.065202  0  3.840725  0
C  C347  1  0.32737134  0.45594261  0.12577804  1  0.205484  0  -0.020657  0.065055  0  3.840931  0
C  C348  1  0.17262973  0.62577697  0.95594289  1  0.2055  0  -0.020604  0.0652  0  3.840757  0
C  C349  1  0.17262957  0.87422273  0.54405724  1  0.205475  0  -0.020598  0.065213  0  3.84077  0
C  C350  1  0.17262913  0.95594264  0.87422249  1  0.205499  0  -0.020641  0.06509  0  3.840851  0
C  C351  1  0.17262887  0.54405757  0.62577713  1  0.205508  0  -0.020637  0.0651  0  3.840882  0
C  C352  1  0.67262900  0.62577754  0.54405739  1  0.205487  0  -0.020649  0.065079  0  3.840918  0
C  C353  1  0.67262930  0.87422233  0.95594307  1  0.205506  0  -0.020635  0.06508  0  3.840877  0
C  C354  1  0.67262914  0.95594271  0.62577732  1  0.205503  0  -0.020626  0.065122  0  3.840819  0
C  C355  1  0.67262916  0.54405766  0.87422213  1  0.205512  0  -0.020686  0.065012  0  3.840935  0
C  C356  1  0.82737077  0.37422279  0.04405728  1  0.205494  0  -0.020627  0.065183  0  3.840687  0
C  C357  1  0.82737028  0.12577754  0.45594294  1  0.205477  0  -0.020646  0.065078  0  3.840899  0
C  C358  1  0.82737073  0.04405713  0.12577768  1  0.205495  0  -0.02065  0.065079  0  3.840821  0
C  C359  1  0.82737098  0.45594270  0.37422253  1  0.205494  0  -0.020634  0.065134  0  3.840814  0
C  C360  1  0.38563727  0.43610211  0.46642680  1  0.217715  0  -0.024048  0.070264  0  3.901869  0
C  C361  1  0.38563757  0.06389857  0.03357262  1  0.21764  0  -0.024025  0.070313  0  3.901737  0
C  C362  1  0.38563713  0.03357206  0.43610226  1  0.217745  0  -0.02403  0.070248  0  3.901924  0
C  C363  1  0.38563770  0.46642711  0.06389867  1  0.217713  0  -0.024044  0.070297  0  3.901684  0
C  C364  1  0.11436267  0.56389759  0.96642687  1  0.217715  0  -0.024057  0.07027  0  3.901852  0
C  C365  1  0.11436254  0.93610160  0.53357322  1  0.217713  0  -0.024067  0.070258  0  3.901808  0
C  C366  1  0.11436277  0.96642663  0.93610236  1  0.217668  0  -0.024086  0.070264  0  3.901824  0
C  C367  1  0.11436178  0.53357305  0.56389772  1  0.217703  0  -0.024054  0.070294  0  3.901844  0
C  C368  1  0.61436193  0.56389815  0.53357337  1  0.217721  0  -0.024104  0.070178  0  3.901824  0
C  C369  1  0.61436228  0.93610170  0.96642705  1  0.217672  0  -0.024086  0.070238  0  3.90183  0
C  C370  1  0.61436206  0.96642670  0.56389791  1  0.217723  0  -0.024045  0.070306  0  3.901839  0
C  C371  1  0.61436215  0.53357366  0.93610150  1  0.217721  0  -0.02403  0.070367  0  3.901641  0
C  C372  1  0.88563783  0.43610218  0.03357330  1  0.217718  0  -0.024051  0.070277  0  3.901811  0
C  C373  1  0.88563732  0.06389817  0.46642695  1  0.217592  0  -0.024103  0.070231  0  3.90168  0
C  C374  1  0.88563774  0.03357213  0.06389781  1  0.217586  0  -0.024032  0.070266  0  3.901898  0
C  C375  1  0.88563807  0.46642772  0.43610195  1  0.217568  0  -0.024034  0.070267  0  3.901892  0
N  N376  1  0.60129625  0.35694328  0.24812843  1  -1.230255  0  -0.328725  -0.237519  0  3.54039  0
N  N377  1  0.60129489  0.14305597  0.25187264  1  -1.230192  0  -0.328672  -0.237476  0  3.540312  0
N  N378  1  0.60129498  0.25187299  0.35694347  1  -1.230274  0  -0.328687  -0.237465  0  3.540387  0
N  N379  1  0.60129551  0.24812827  0.14305660  1  -1.230239  0  -0.328713  -0.237494  0  3.54034  0
N  N380  1  0.89870440  0.64305657  0.74812719  1  -1.230263  0  -0.328707  -0.237508  0  3.540342  0
N  N381  1  0.89870381  0.85694339  0.75187191  1  -1.230238  0  -0.328713  -0.237485  0  3.54035  0
N  N382  1  0.89870450  0.74812687  0.85694374  1  -1.230229  0  -0.328685  -0.237499  0  3.540349  0
N  N383  1  0.89870438  0.75187258  0.64305687  1  -1.230299  0  -0.328702  -0.237452  0  3.540386  0
N  N384  1  0.39870229  0.64305698  0.75187124  1  -1.23025  0  -0.328712  -0.237496  0  3.54034  0
N  N385  1  0.39870431  0.85694330  0.74812703  1  -1.230221  0  -0.328703  -0.23748  0  3.540326  0
N  N386  1  0.39870422  0.74812728  0.64305620  1  -1.230277  0  -0.328701  -0.237532  0  3.540464  0
N  N387  1  0.39870369  0.75187200  0.85694357  1  -1.230235  0  -0.328688  -0.23745  0  3.540346  0
N  N388  1  0.10129545  0.35694370  0.25187248  1  -1.230242  0  -0.328694  -0.237491  0  3.540444  0
N  N389  1  0.10129669  0.14305588  0.24812826  1  -1.230196  0  -0.328673  -0.237421  0  3.540351  0
N  N390  1  0.10129536  0.25187340  0.14305593  1  -1.230233  0  -0.32865  -0.237385  0  3.540354  0
N  N391  1  0.10129547  0.24812769  0.35694380  1  -1.230257  0  -0.328676  -0.237406  0  3.540372  0
Cl  Cl392  1  0.34655202  0.31673034  0.52270541  1  -0.197133  0  -0.002291  -0.057829  0  1.515087  0
Cl  Cl393  1  0.34655093  0.18327037  0.97729278  1  -0.197196  0  -0.002316  -0.057846  0  1.515066  0
Cl  Cl394  1  0.34655209  0.97729500  0.31672949  1  -0.19714  0  -0.002289  -0.057824  0  1.515085  0
Cl  Cl395  1  0.34655516  0.52270522  0.18327096  1  -0.197166  0  -0.002297  -0.057815  0  1.5151  0
Cl  Cl396  1  0.15344808  0.68326882  0.02270672  1  -0.197145  0  -0.002285  -0.057822  0  1.5151  0
Cl  Cl397  1  0.15344772  0.81672933  0.47729510  1  -0.197137  0  -0.002287  -0.057833  0  1.515085  0
Cl  Cl398  1  0.15344506  0.02270519  0.81672903  1  -0.197141  0  -0.002287  -0.057799  0  1.515067  0
Cl  Cl399  1  0.15344447  0.47729546  0.68327003  1  -0.197132  0  -0.002288  -0.05782  0  1.515075  0
Cl  Cl400  1  0.65344783  0.68327194  0.47729576  1  -0.197143  0  -0.002284  -0.057791  0  1.515079  0
Cl  Cl401  1  0.65344762  0.81672989  0.02270639  1  -0.197161  0  -0.002303  -0.057827  0  1.51513  0
Cl  Cl402  1  0.65344776  0.02270627  0.68326968  1  -0.197143  0  -0.002293  -0.057819  0  1.515108  0
Cl  Cl403  1  0.65344731  0.47729505  0.81672922  1  -0.197152  0  -0.002289  -0.057814  0  1.515079  0
Cl  Cl404  1  0.84655112  0.31673045  0.97729295  1  -0.197174  0  -0.002301  -0.057842  0  1.515058  0
Cl  Cl405  1  0.84655148  0.18326994  0.52270607  1  -0.19716  0  -0.002289  -0.057799  0  1.515093  0
Cl  Cl406  1  0.84655217  0.97729558  0.18327214  1  -0.197154  0  -0.002294  -0.057801  0  1.515061  0
Cl  Cl407  1  0.84655539  0.52270531  0.31673014  1  -0.197149  0  -0.002301  -0.057821  0  1.515072  0
Cl  Cl408  1  0.21505029  0.39797052  0.45551072  1  -0.20105  0  -0.005773  -0.069354  0  1.587841  0
Cl  Cl409  1  0.21505193  0.10202961  0.04448708  1  -0.201018  0  -0.005788  -0.069362  0  1.58783  0
Cl  Cl410  1  0.21505015  0.04448755  0.39797013  1  -0.201045  0  -0.005777  -0.069357  0  1.587823  0
Cl  Cl411  1  0.21505141  0.45551157  0.10203069  1  -0.200915  0  -0.005755  -0.069307  0  1.587837  0
Cl  Cl412  1  0.28494964  0.60202868  0.95551241  1  -0.201057  0  -0.005779  -0.069372  0  1.587834  0
Cl  Cl413  1  0.28494950  0.89797106  0.54448880  1  -0.200948  0  -0.005779  -0.069368  0  1.587851  0
Cl  Cl414  1  0.28494906  0.95551014  0.89797084  1  -0.200935  0  -0.005776  -0.06935  0  1.587844  0
Cl  Cl415  1  0.28495008  0.54449011  0.60202986  1  -0.200949  0  -0.00579  -0.06937  0  1.587849  0
Cl  Cl416  1  0.78494957  0.60202925  0.54448895  1  -0.201023  0  -0.005776  -0.069341  0  1.587832  0
Cl  Cl417  1  0.78494988  0.89796866  0.95551259  1  -0.200935  0  -0.005782  -0.069334  0  1.587833  0
Cl  Cl418  1  0.78494970  0.95551121  0.60202954  1  -0.201039  0  -0.005778  -0.069359  0  1.587858  0
Cl  Cl419  1  0.78495040  0.54448971  0.89796898  1  -0.20095  0  -0.005794  -0.06936  0  1.587816  0
Cl  Cl420  1  0.71505217  0.39797108  0.04448776  1  -0.201014  0  -0.00578  -0.069375  0  1.587847  0
Cl  Cl421  1  0.71505166  0.10202971  0.45551087  1  -0.200925  0  -0.005768  -0.069345  0  1.58788  0
Cl  Cl422  1  0.71505145  0.04448762  0.10202833  1  -0.201029  0  -0.005777  -0.069343  0  1.587816  0
Cl  Cl423  1  0.71505108  0.45551066  0.39797031  1  -0.200915  0  -0.005762  -0.069338  0  1.58785  0
Cl  Cl424  1  0.49739176  0.41192581  0.46243174  1  -0.182075  0  -0.007292  -0.061508  0  1.562892  0
Cl  Cl425  1  0.49739208  0.08807390  0.03756926  1  -0.182083  0  -0.007289  -0.061516  0  1.562902  0
Cl  Cl426  1  0.49739227  0.03756768  0.41192698  1  -0.18218  0  -0.007299  -0.061511  0  1.562924  0
Cl  Cl427  1  0.49739156  0.46243254  0.08807503  1  -0.182186  0  -0.007287  -0.0615  0  1.562901  0
Cl  Cl428  1  0.00260818  0.58807339  0.96243023  1  -0.182186  0  -0.007292  -0.061531  0  1.56293  0
Cl  Cl429  1  0.00260934  0.91192476  0.53756828  1  -0.18206  0  -0.007276  -0.061498  0  1.56292  0
Cl  Cl430  1  0.00260826  0.96243001  0.91192751  1  -0.182075  0  -0.00728  -0.061508  0  1.562915  0
Cl  Cl431  1  0.00260795  0.53756864  0.58807401  1  -0.182086  0  -0.007295  -0.061519  0  1.562921  0
Cl  Cl432  1  0.50260744  0.58807345  0.53756843  1  -0.182187  0  -0.007297  -0.061503  0  1.562909  0
Cl  Cl433  1  0.50260843  0.91192787  0.96243041  1  -0.182177  0  -0.007269  -0.061501  0  1.562942  0
Cl  Cl434  1  0.50260692  0.96242958  0.58807319  1  -0.182108  0  -0.007298  -0.061536  0  1.562894  0
Cl  Cl435  1  0.50260764  0.53756823  0.91192514  1  -0.182083  0  -0.007286  -0.061505  0  1.562845  0
Cl  Cl436  1  0.99739167  0.41192638  0.03756994  1  -0.182083  0  -0.007284  -0.061512  0  1.562919  0
Cl  Cl437  1  0.99739182  0.08807451  0.46243139  1  -0.182174  0  -0.007292  -0.061509  0  1.562886  0
Cl  Cl438  1  0.99739290  0.03756775  0.08807166  1  -0.182188  0  -0.007288  -0.0615  0  1.562924  0
Cl  Cl439  1  0.99739255  0.46243264  0.41192666  1  -0.182197  0  -0.007298  -0.061511  0  1.562918  0
Cl  Cl440  1  0.36319693  0.49880288  0.40486453  1  -0.208204  0  -0.004691  -0.073008  0  1.545496  0
Cl  Cl441  1  0.36319661  0.00119729  0.09513538  1  -0.208196  0  -0.004694  -0.073019  0  1.545425  0
Cl  Cl442  1  0.36319621  0.09513382  0.49880405  1  -0.20824  0  -0.00469  -0.073007  0  1.54546  0
Cl  Cl443  1  0.36319733  0.40486385  0.00119787  1  -0.208186  0  -0.004699  -0.073011  0  1.545383  0
Cl  Cl444  1  0.13680359  0.50119681  0.90486510  1  -0.208262  0  -0.00469  -0.073003  0  1.545448  0
Cl  Cl445  1  0.13680356  0.99880338  0.59513500  1  -0.2082  0  -0.004687  -0.073011  0  1.545436  0
Cl  Cl446  1  0.13680376  0.90486488  0.99880366  1  -0.208237  0  -0.004683  -0.072999  0  1.545432  0
Cl  Cl447  1  0.13680339  0.59513431  0.50119644  1  -0.208239  0  -0.004688  -0.073003  0  1.54545  0
Cl  Cl448  1  0.63680292  0.50119739  0.59513564  1  -0.208204  0  -0.00464  -0.072937  0  1.545377  0
Cl  Cl449  1  0.63680258  0.99880398  0.90486529  1  -0.208166  0  -0.004665  -0.072979  0  1.545373  0
Cl  Cl450  1  0.63680233  0.90486495  0.50119662  1  -0.208206  0  -0.0047  -0.073016  0  1.545471  0
Cl  Cl451  1  0.63680317  0.59513642  0.99880180  1  -0.2082  0  -0.004667  -0.072972  0  1.545447  0
Cl  Cl452  1  0.86319626  0.49880345  0.09513507  1  -0.208255  0  -0.0047  -0.073023  0  1.545429  0
Cl  Cl453  1  0.86319498  0.00119739  0.40486417  1  -0.20827  0  -0.004655  -0.072978  0  1.545389  0
Cl  Cl454  1  0.86319609  0.09513338  0.00119601  1  -0.208229  0  -0.004694  -0.073016  0  1.545492  0
Cl  Cl455  1  0.86319711  0.40486697  0.49880423  1  -0.208222  0  -0.004698  -0.073027  0  1.545506  0
F  F456  1  0.46369385  0.24999885  0.24999898  1  -0.816445  0  -0.192543  -0.495001  0  1.388265  0
F  F457  1  0.03630846  0.75000133  0.74999952  1  -0.816564  0  -0.19252  -0.494994  0  1.388286  0
F  F458  1  0.53630862  0.75000042  0.75000169  1  -0.816615  0  -0.192513  -0.494944  0  1.388345  0
F  F459  1  0.96369074  0.25000194  0.24999915  1  -0.816611  0  -0.192507  -0.494939  0  1.388362  0
F  F460  1  0.35138373  0.31810267  0.19735666  1  -0.840173  0  -0.227834  -0.527504  0  1.125896  0
F  F461  1  0.35138440  0.18189499  0.30263923  1  -0.840157  0  -0.227788  -0.527507  0  1.125904  0
F  F462  1  0.35138379  0.30264011  0.31810281  1  -0.840119  0  -0.227839  -0.527504  0  1.125902  0
F  F463  1  0.35138434  0.19735755  0.18189509  1  -0.84018  0  -0.227795  -0.527482  0  1.125935  0
F  F464  1  0.14861591  0.68189701  0.69735977  1  -0.840134  0  -0.22784  -0.527513  0  1.12592  0
F  F465  1  0.14861666  0.81810419  0.80264235  1  -0.840175  0  -0.227773  -0.527463  0  1.125943  0
F  F466  1  0.14861598  0.69735958  0.81810441  1  -0.840157  0  -0.227824  -0.527495  0  1.125925  0
F  F467  1  0.14861528  0.80264262  0.68189770  1  -0.840139  0  -0.227827  -0.527492  0  1.125959  0
F  F468  1  0.64861612  0.68189609  0.80264351  1  -0.840191  0  -0.227774  -0.527388  0  1.125999  0
F  F469  1  0.64861676  0.81810277  0.69735793  1  -0.840166  0  -0.227814  -0.527461  0  1.125975  0
F  F470  1  0.64861606  0.69735765  0.68189536  1  -0.84014  0  -0.227825  -0.52747  0  1.125935  0
F  F471  1  0.64861682  0.80264221  0.81810508  1  -0.840171  0  -0.227787  -0.527428  0  1.126  0
F  F472  1  0.85138263  0.31810426  0.30264241  1  -0.840185  0  -0.227776  -0.527428  0  1.126027  0
F  F473  1  0.85138254  0.18189808  0.19735632  1  -0.840171  0  -0.227803  -0.527421  0  1.125982  0
F  F474  1  0.85138452  0.30264119  0.18189425  1  -0.840159  0  -0.227768  -0.527424  0  1.126  0
F  F475  1  0.85138261  0.19735965  0.31810548  1  -0.840168  0  -0.227809  -0.527464  0  1.125978  0
F  F476  1  0.23877359  0.24999881  0.24999891  1  -0.834786  0  -0.191862  -0.496818  0  1.382469  0
F  F477  1  0.26122937  0.74999987  0.75000160  1  -0.834809  0  -0.19184  -0.496854  0  1.382514  0
F  F478  1  0.76123018  0.75000045  0.75000126  1  -0.834823  0  -0.191834  -0.496802  0  1.382588  0
F  F479  1  0.73877048  0.25000040  0.25000058  1  -0.834808  0  -0.191829  -0.496804  0  1.382592  0
