# generated using pymatgen
data_ZnH18C31NO4
_symmetry_space_group_name_H-M   'P 1'
_cell_length_a   15.66523159
_cell_length_b   16.06808801
_cell_length_c   21.47130494
_cell_angle_alpha   90.00001908
_cell_angle_beta   90.00001721
_cell_angle_gamma   94.16451285
_symmetry_Int_Tables_number   1
_chemical_formula_structural   ZnH18C31NO4
_chemical_formula_sum   'Zn8 H144 C248 N8 O32'
_cell_volume   5390.27911925
_cell_formula_units_Z   8
loop_
 _symmetry_equiv_pos_site_id
 _symmetry_equiv_pos_as_xyz
  1  'x, y, z'
loop_
 _atom_site_type_symbol
 _atom_site_label
 _atom_site_symmetry_multiplicity
 _atom_site_fract_x
 _atom_site_fract_y
 _atom_site_fract_z
 _atom_site_occupancy
 _atom_site_pbe_bader_charge
 _atom_site_pbe_bader_spin_density
 _atom_site_pbe_cm5_charge
 _atom_site_pbe_ddec_charge
 _atom_site_pbe_ddec_spin_density
 _atom_site_pbe_ddec_sum_bond_order
 _atom_site_pbe_magmom
Zn  Zn0  1  0.19438234  0.05150740  0.23683333  1  1.296256  0  0.674736  0.832853  0  2.399542  0
Zn  Zn1  1  0.80561844  0.44849251  0.73683379  1  1.296276  0  0.674759  0.832911  0  2.399432  0
Zn  Zn2  1  0.80561781  0.94849321  0.76316714  1  1.296265  0  0.674722  0.832817  0  2.399515  0
Zn  Zn3  1  0.19438230  0.55150747  0.26316668  1  1.296276  0  0.674735  0.832844  0  2.399524  0
Zn  Zn4  1  0.67417206  0.56655573  0.74397263  1  1.291399  0  0.67341  0.830297  0  2.370557  0
Zn  Zn5  1  0.32582868  0.93344494  0.24397228  1  1.291422  0  0.673411  0.830279  0  2.370546  0
Zn  Zn6  1  0.32582873  0.43344488  0.25602831  1  1.291405  0  0.673406  0.830286  0  2.370549  0
Zn  Zn7  1  0.67417206  0.06655504  0.75602772  1  1.29139  0  0.673415  0.830312  0  2.370612  0
H  H8  1  0.02268109  0.04496445  0.17834967  1  0.150218  0  0.120242  0.094299  0  1.014264  0
H  H9  1  0.97731966  0.45503543  0.67834925  1  0.150223  0  0.120224  0.094271  0  1.014312  0
H  H10  1  0.97731965  0.95503553  0.82164940  1  0.150233  0  0.120229  0.094278  0  1.014278  0
H  H11  1  0.02268107  0.54496455  0.32165029  1  0.15022  0  0.120243  0.094274  0  1.014303  0
H  H12  1  0.90328041  0.13967038  0.16417831  1  0.071779  0  0.115783  0.128461  0  0.976382  0
H  H13  1  0.09671965  0.36032888  0.66417813  1  0.071781  0  0.115787  0.12841  0  0.976408  0
H  H14  1  0.09671964  0.86032899  0.83582077  1  0.071809  0  0.115796  0.128438  0  0.97643  0
H  H15  1  0.90328104  0.63967048  0.33582141  1  0.071791  0  0.115786  0.128441  0  0.976434  0
H  H16  1  0.06288639  0.33203206  0.25741477  1  0.134628  0  0.112616  0.130197  0  1.019822  0
H  H17  1  0.93711312  0.16796787  0.75741380  1  0.134677  0  0.112616  0.130191  0  1.019839  0
H  H18  1  0.93711238  0.66796731  0.74258570  1  0.134663  0  0.112627  0.130186  0  1.019802  0
H  H19  1  0.06288629  0.83203150  0.24258527  1  0.13464  0  0.112604  0.130128  0  1.019845  0
H  H20  1  0.17483144  0.22878967  0.26864744  1  0.141864  0  0.124512  0.105949  0  0.999324  0
H  H21  1  0.82516872  0.27121026  0.76864693  1  0.141872  0  0.124509  0.105945  0  0.999305  0
H  H22  1  0.82516743  0.77121094  0.73135350  1  0.142185  0  0.12451  0.10596  0  0.999278  0
H  H23  1  0.17483133  0.72878910  0.23135261  1  0.14185  0  0.124498  0.105947  0  0.999303  0
H  H24  1  0.83219152  0.33519624  0.33352667  1  0.07873  0  0.099935  0.103227  0  1.040411  0
H  H25  1  0.16780792  0.16480248  0.83352646  1  0.078744  0  0.099938  0.103229  0  1.04042  0
H  H26  1  0.16780784  0.66480250  0.66647333  1  0.07875  0  0.099946  0.103249  0  1.040379  0
H  H27  1  0.83219149  0.83519689  0.16647308  1  0.078755  0  0.09994  0.103222  0  1.040433  0
H  H28  1  0.76386158  0.36248131  0.43643704  1  0.039845  0  0.098736  0.09692  0  1.016549  0
H  H29  1  0.23613669  0.13751808  0.93643730  1  0.039825  0  0.098728  0.096903  0  1.016528  0
H  H30  1  0.23613656  0.63751806  0.56356250  1  0.039807  0  0.098772  0.097017  0  1.016536  0
H  H31  1  0.76386272  0.86248128  0.06356177  1  0.03981  0  0.098756  0.096993  0  1.016538  0
H  H32  1  0.66409284  0.47433367  0.44641082  1  0.058153  0  0.099365  0.100393  0  1.012915  0
H  H33  1  0.33590675  0.02566635  0.94641154  1  0.058274  0  0.099321  0.10034  0  1.01289  0
H  H34  1  0.33590603  0.52566695  0.55358825  1  0.058272  0  0.099369  0.100424  0  1.012896  0
H  H35  1  0.66409398  0.97433363  0.05358846  1  0.058275  0  0.099331  0.100336  0  1.012891  0
H  H36  1  0.63196370  0.56170651  0.35330470  1  0.084654  0  0.09963  0.101921  0  1.028138  0
H  H37  1  0.36803645  0.93829421  0.85330507  1  0.084463  0  0.099641  0.101924  0  1.028138  0
H  H38  1  0.36803645  0.43829410  0.64669484  1  0.084455  0  0.099632  0.10192  0  1.028153  0
H  H39  1  0.63196301  0.06170577  0.14669447  1  0.08466  0  0.099656  0.101944  0  1.028172  0
H  H40  1  0.96498690  0.47059801  0.17135957  1  0.065271  0  0.098899  0.103564  0  1.035781  0
H  H41  1  0.03501257  0.02940188  0.67135976  1  0.065281  0  0.098909  0.103574  0  1.035765  0
H  H42  1  0.03501261  0.52940260  0.82863997  1  0.065282  0  0.0989  0.10355  0  1.03576  0
H  H43  1  0.96498689  0.97059811  0.32864024  1  0.06529  0  0.098917  0.103579  0  1.035802  0
H  H44  1  0.01128196  0.61475465  0.13514137  1  0.077339  0  0.10003  0.10007  0  1.006717  0
H  H45  1  0.98871927  0.88524472  0.63514140  1  0.077355  0  0.100021  0.100049  0  1.006741  0
H  H46  1  0.98871814  0.38524534  0.86485816  1  0.077346  0  0.100015  0.100032  0  1.006777  0
H  H47  1  0.01128078  0.11475464  0.36485860  1  0.077361  0  0.10002  0.100043  0  1.006754  0
H  H48  1  0.91189160  0.72716017  0.14206608  1  0.03542  0  0.091189  0.08589  0  1.04927  0
H  H49  1  0.08810899  0.77283920  0.64206588  1  0.035408  0  0.09122  0.085962  0  1.04919  0
H  H50  1  0.08810918  0.27284044  0.85793346  1  0.035408  0  0.091196  0.085918  0  1.049244  0
H  H51  1  0.91188968  0.22715892  0.35793366  1  0.03546  0  0.091215  0.085926  0  1.049249  0
H  H52  1  0.76509145  0.69793039  0.18757005  1  0.056456  0  0.093971  0.091357  0  1.044347  0
H  H53  1  0.23490852  0.80206901  0.68756989  1  0.056451  0  0.093974  0.091348  0  1.044346  0
H  H54  1  0.23490806  0.30207023  0.81242996  1  0.056478  0  0.093991  0.091365  0  1.044336  0
H  H55  1  0.76509212  0.19792972  0.31242965  1  0.056477  0  0.093983  0.091364  0  1.04432  0
H  H56  1  0.73898813  0.28543738  0.13947883  1  0.057499  0  0.097335  0.098343  0  1.016646  0
H  H57  1  0.26101128  0.21456186  0.63947865  1  0.05751  0  0.097352  0.098357  0  1.016613  0
H  H58  1  0.26101133  0.71456261  0.86052117  1  0.057504  0  0.09735  0.098371  0  1.016612  0
H  H59  1  0.73898809  0.78543688  0.36052135  1  0.057513  0  0.097329  0.098343  0  1.016627  0
H  H60  1  0.59778065  0.27502274  0.08405042  1  0.076678  0  0.096212  0.095489  0  1.021346  0
H  H61  1  0.40221942  0.22497710  0.58405027  1  0.076673  0  0.096214  0.095492  0  1.021341  0
H  H62  1  0.40221876  0.72497662  0.91594912  1  0.076687  0  0.096219  0.095494  0  1.021336  0
H  H63  1  0.59778073  0.77502351  0.41594833  1  0.076704  0  0.096221  0.095505  0  1.02134  0
H  H64  1  0.49645473  0.38545124  0.09854279  1  0.063094  0  0.100853  0.099027  0  0.998478  0
H  H65  1  0.50354535  0.11454861  0.59854217  1  0.063083  0  0.100848  0.099022  0  0.998472  0
H  H66  1  0.50354473  0.61454875  0.90145722  1  0.063097  0  0.100844  0.099027  0  0.998482  0
H  H67  1  0.49645401  0.88545013  0.40145690  1  0.06307  0  0.100846  0.099002  0  0.998474  0
H  H68  1  0.53634164  0.50852700  0.16656382  1  0.092037  0  0.100093  0.105331  0  1.048974  0
H  H69  1  0.46365828  0.99147177  0.66656329  1  0.092024  0  0.100093  0.10532  0  1.048983  0
H  H70  1  0.46365787  0.49147361  0.83343572  1  0.092039  0  0.100099  0.105345  0  1.04898  0
H  H71  1  0.53634167  0.00852635  0.33343531  1  0.092039  0  0.100099  0.105326  0  1.048962  0
H  H72  1  0.44721876  0.65790989  0.30492431  1  0.121248  0  0.110256  0.123958  0  1.023987  0
H  H73  1  0.55278132  0.84209019  0.80492376  1  0.121251  0  0.110258  0.123962  0  1.023984  0
H  H74  1  0.55278129  0.34208948  0.69507709  1  0.121268  0  0.110265  0.123973  0  1.023967  0
H  H75  1  0.44721819  0.15791042  0.19507717  1  0.121263  0  0.110265  0.12398  0  1.023976  0
H  H76  1  0.34397595  0.77024259  0.30706158  1  0.130071  0  0.123912  0.102468  0  0.991147  0
H  H77  1  0.65602354  0.72975811  0.80706103  1  0.130068  0  0.123922  0.102482  0  0.991112  0
H  H78  1  0.65602478  0.22975739  0.69293982  1  0.130081  0  0.123912  0.102517  0  0.991087  0
H  H79  1  0.34397401  0.27024188  0.19293944  1  0.130037  0  0.123914  0.102455  0  0.991138  0
H  H80  1  0.50153215  0.92422355  0.19461619  1  0.148093  0  0.120279  0.094478  0  1.005971  0
H  H81  1  0.49846793  0.57577710  0.69461650  1  0.148097  0  0.120275  0.094455  0  1.005986  0
H  H82  1  0.49846736  0.07577706  0.80538381  1  0.148201  0  0.120288  0.094494  0  1.005941  0
H  H83  1  0.50153291  0.42422413  0.30538350  1  0.148075  0  0.120273  0.094481  0  1.005965  0
H  H84  1  0.61132897  0.81920735  0.18771955  1  0.094999  0  0.109027  0.119538  0  1.014416  0
H  H85  1  0.38867110  0.68079330  0.68771939  1  0.095012  0  0.109052  0.119543  0  1.014412  0
H  H86  1  0.38867118  0.18079326  0.81228139  1  0.09499  0  0.109047  0.119538  0  1.014414  0
H  H87  1  0.61133032  0.31920731  0.31228015  1  0.094974  0  0.109022  0.119539  0  1.01439  0
H  H88  1  0.31664295  0.25934405  0.34192619  1  0.133611  0  0.103077  0.108568  0  1.050847  0
H  H89  1  0.68335718  0.24065529  0.84192564  1  0.134035  0  0.103082  0.108553  0  1.050805  0
H  H90  1  0.68335651  0.74065594  0.65807521  1  0.134024  0  0.103087  0.108562  0  1.050818  0
H  H91  1  0.31664291  0.75934470  0.15807529  1  0.134003  0  0.103079  0.108539  0  1.050842  0
H  H92  1  0.39598665  0.35188275  0.41603908  1  0.05365  0  0.101751  0.106889  0  1.008501  0
H  H93  1  0.60401288  0.14811663  0.91603896  1  0.053638  0  0.101752  0.106877  0  1.008499  0
H  H94  1  0.60401213  0.64811662  0.58396233  1  0.053649  0  0.101747  0.106886  0  1.008496  0
H  H95  1  0.39598657  0.85188336  0.08396198  1  0.053634  0  0.101752  0.106884  0  1.008487  0
H  H96  1  0.53948791  0.14603361  0.47510208  1  0.047772  0  0.101436  0.099806  0  1.010211  0
H  H97  1  0.46051165  0.35396579  0.97510105  1  0.047792  0  0.101435  0.099799  0  1.010258  0
H  H98  1  0.46051278  0.85396575  0.52489792  1  0.047724  0  0.101434  0.099791  0  1.010288  0
H  H99  1  0.53948913  0.64603481  0.02489849  1  0.047784  0  0.101432  0.099794  0  1.010243  0
H  H100  1  0.45877344  0.05419444  0.39971866  1  0.085108  0  0.10353  0.106611  0  1.023313  0
H  H101  1  0.54122614  0.44580556  0.89971767  1  0.085108  0  0.103525  0.106603  0  1.023323  0
H  H102  1  0.54122735  0.94580617  0.60028041  1  0.085094  0  0.103527  0.106566  0  1.023302  0
H  H103  1  0.45877337  0.55419506  0.10028233  1  0.085124  0  0.103516  0.106564  0  1.023349  0
H  H104  1  0.42455036  0.39310082  0.51235880  1  0.057119  0  0.101598  0.101777  0  1.010731  0
H  H105  1  0.57545037  0.10689961  0.01235797  1  0.057112  0  0.101589  0.101772  0  1.010734  0
H  H106  1  0.57545038  0.60689916  0.48764260  1  0.057102  0  0.101594  0.101769  0  1.010735  0
H  H107  1  0.42454978  0.89310100  0.98764250  1  0.057107  0  0.101597  0.101777  0  1.010727  0
H  H108  1  0.50614164  0.47574918  0.59349502  1  0.101962  0  0.101465  0.102013  0  1.023748  0
H  H109  1  0.49385976  0.02425129  0.09349507  1  0.101978  0  0.101484  0.102021  0  1.02376  0
H  H110  1  0.49385905  0.52425018  0.40650545  1  0.10197  0  0.101466  0.102023  0  1.023732  0
H  H111  1  0.50614038  0.97574932  0.90650493  1  0.101973  0  0.101481  0.102014  0  1.02376  0
H  H112  1  0.71943866  0.32624692  0.56881091  1  0.08603  0  0.10261  0.104848  0  1.028585  0
H  H113  1  0.28056204  0.17375292  0.06881189  1  0.08604  0  0.102611  0.104849  0  1.028579  0
H  H114  1  0.28056202  0.67375244  0.43118863  1  0.086045  0  0.102614  0.10487  0  1.02857  0
H  H115  1  0.71943801  0.82624645  0.93118811  1  0.086036  0  0.102613  0.104843  0  1.028587  0
H  H116  1  0.63994304  0.24407117  0.48647030  1  0.059912  0  0.103477  0.103272  0  1.003962  0
H  H117  1  0.36005652  0.25592824  0.98647062  1  0.059913  0  0.103491  0.103287  0  1.003976  0
H  H118  1  0.36005578  0.75592882  0.51352970  1  0.059904  0  0.103473  0.10325  0  1.003989  0
H  H119  1  0.63994294  0.74407175  0.01352938  1  0.059919  0  0.103497  0.103291  0  1.003965  0
H  H120  1  0.93146672  0.51954600  0.91234667  1  0.074202  0  0.103938  0.105603  0  1.017153  0
H  H121  1  0.06853468  0.98045413  0.41234675  1  0.074207  0  0.103944  0.105605  0  1.017162  0
H  H122  1  0.06853397  0.48045336  0.08765380  1  0.074212  0  0.10394  0.105603  0  1.017169  0
H  H123  1  0.93146615  0.01954710  0.58765326  1  0.074225  0  0.103961  0.105646  0  1.017134  0
H  H124  1  0.01935860  0.59724538  0.99290806  1  0.050553  0  0.101082  0.100118  0  1.013689  0
H  H125  1  0.98064278  0.90275415  0.49290738  1  0.050599  0  0.101085  0.100131  0  1.013741  0
H  H126  1  0.98064208  0.40275398  0.00709288  1  0.050593  0  0.101083  0.100134  0  1.013731  0
H  H127  1  0.01935746  0.09724770  0.50709309  1  0.050614  0  0.101077  0.100133  0  1.013794  0
H  H128  1  0.89102625  0.81916797  0.95036349  1  0.078732  0  0.100362  0.101305  0  1.009536  0
H  H129  1  0.10897262  0.68083218  0.45036257  1  0.078733  0  0.100368  0.10133  0  1.009539  0
H  H130  1  0.10897321  0.18083202  0.04963745  1  0.078732  0  0.100371  0.101333  0  1.009538  0
H  H131  1  0.89102699  0.31916968  0.54963790  1  0.078798  0  0.100352  0.101303  0  1.009552  0
H  H132  1  0.80187502  0.73940428  0.87223641  1  0.09447  0  0.102608  0.104542  0  1.023119  0
H  H133  1  0.19812445  0.76059583  0.37223692  1  0.094479  0  0.10262  0.104537  0  1.023127  0
H  H134  1  0.19812444  0.26059570  0.12776360  1  0.094474  0  0.102606  0.104538  0  1.023131  0
H  H135  1  0.80187560  0.23940353  0.62776308  1  0.094484  0  0.102638  0.104575  0  1.023132  0
H  H136  1  0.12793506  0.69230617  0.00891339  1  0.084807  0  0.103896  0.104884  0  1.000003  0
H  H137  1  0.87206483  0.80769314  0.50891337  1  0.084811  0  0.103902  0.104879  0  1.000054  0
H  H138  1  0.87206563  0.30769319  0.99108661  1  0.084818  0  0.103911  0.104898  0  1.000058  0
H  H139  1  0.12793467  0.19230747  0.49108756  1  0.08482  0  0.103895  0.104865  0  1.00002  0
H  H140  1  0.21562003  0.77032298  0.08864774  1  0.110297  0  0.103149  0.107015  0  1.035541  0
H  H141  1  0.78438069  0.72967824  0.58864768  1  0.110301  0  0.103151  0.10704  0  1.035527  0
H  H142  1  0.78438135  0.22967700  0.91135273  1  0.110321  0  0.103157  0.107035  0  1.035568  0
H  H143  1  0.21561882  0.27032237  0.41135326  1  0.110315  0  0.103148  0.10703  0  1.03554  0
H  H144  1  0.00676116  0.92143745  0.12747816  1  0.059819  0  0.10114  0.101375  0  1.021003  0
H  H145  1  0.99323948  0.57856254  0.62747858  1  0.060011  0  0.101145  0.101367  0  1.020971  0
H  H146  1  0.99323958  0.07856253  0.87252184  1  0.059859  0  0.101157  0.101375  0  1.020977  0
H  H147  1  0.00676067  0.42143807  0.37252143  1  0.059848  0  0.10115  0.101399  0  1.020932  0
H  H148  1  0.91811891  0.84384057  0.04826881  1  0.029579  0  0.097741  0.093326  0  1.03234  0
H  H149  1  0.08188041  0.65615939  0.54826812  1  0.029588  0  0.097723  0.093335  0  1.032298  0
H  H150  1  0.08187927  0.15615942  0.95173212  1  0.029608  0  0.097706  0.093314  0  1.032306  0
H  H151  1  0.91811974  0.34384122  0.45173235  1  0.029584  0  0.097726  0.093336  0  1.032281  0
C  C152  1  0.02801704  0.10923111  0.19491737  1  0.470762  0  0.052778  0.099091  0  3.935986  0
C  C153  1  0.97198436  0.39076878  0.69491833  1  0.469921  0  0.052728  0.099028  0  3.936203  0
C  C154  1  0.97198301  0.89076825  0.80508217  1  0.469957  0  0.052752  0.099026  0  3.936115  0
C  C155  1  0.02801638  0.60923120  0.30508261  1  0.470382  0  0.052808  0.099167  0  3.936097  0
C  C156  1  0.96259211  0.16193598  0.18710054  1  0.008186  0  -0.070098  -0.167332  0  3.91636  0
C  C157  1  0.03740795  0.33806329  0.68710034  1  0.008822  0  -0.070021  -0.167128  0  3.916288  0
C  C158  1  0.03740720  0.83806214  0.81289854  1  0.008972  0  -0.070093  -0.167243  0  3.91641  0
C  C159  1  0.96259219  0.66193732  0.31289966  1  0.008704  0  -0.070082  -0.167306  0  3.916406  0
C  C160  1  0.97362524  0.24342269  0.21094912  1  0.071702  0  0.024505  0.186141  0  4.094223  0
C  C161  1  0.02637420  0.25657659  0.71094844  1  0.071682  0  0.024531  0.186127  0  4.094239  0
C  C162  1  0.02637540  0.75657604  0.78904948  1  0.071272  0  0.024558  0.18614  0  4.094147  0
C  C163  1  0.97362393  0.74342278  0.28904924  1  0.071249  0  0.024562  0.186172  0  4.094166  0
C  C164  1  0.05174271  0.26868090  0.23986622  1  0.012854  0  -0.07106  -0.161849  0  3.888592  0
C  C165  1  0.94825743  0.23131902  0.73986620  1  0.012803  0  -0.071055  -0.161875  0  3.888657  0
C  C166  1  0.94825543  0.73131847  0.76013471  1  0.012834  0  -0.071059  -0.161827  0  3.888487  0
C  C167  1  0.05174325  0.76868034  0.26013427  1  0.012868  0  -0.071006  -0.161707  0  3.888533  0
C  C168  1  0.11369763  0.21198446  0.24599720  1  0.454277  0  0.056201  0.102215  0  3.91528  0
C  C169  1  0.88630256  0.28801609  0.74599718  1  0.45428  0  0.056216  0.102239  0  3.91525  0
C  C170  1  0.88630129  0.78801678  0.75400281  1  0.453939  0  0.056214  0.102249  0  3.915196  0
C  C171  1  0.11369817  0.71198390  0.25400329  1  0.45429  0  0.056215  0.102195  0  3.915288  0
C  C172  1  0.90882050  0.30028833  0.20923567  1  0.17319  0  -0.033579  -0.111272  0  4.07192  0
C  C173  1  0.09117899  0.19971157  0.70923452  1  0.172864  0  -0.033684  -0.111232  0  4.071938  0
C  C174  1  0.09118044  0.69971415  0.79076480  1  0.173738  0  -0.033687  -0.111181  0  4.07164  0
C  C175  1  0.90881963  0.80028592  0.29076501  1  0.173771  0  -0.033708  -0.111256  0  4.07169  0
C  C176  1  0.85762077  0.35320504  0.21369605  1  -0.502324  0  -0.016357  -0.053077  0  4.018687  0
C  C177  1  0.14237936  0.14679487  0.71369676  1  -0.501992  0  -0.016316  -0.053189  0  4.018771  0
C  C178  1  0.14237899  0.64679058  0.78630489  1  -0.502598  0  -0.016315  -0.05326  0  4.018654  0
C  C179  1  0.85762167  0.85320886  0.28630464  1  -0.502614  0  -0.016302  -0.053187  0  4.018628  0
C  C180  1  0.79956783  0.41865979  0.21951078  1  0.148136  0  0.024075  0.085971  0  3.940136  0
C  C181  1  0.20043161  0.08133950  0.71951056  1  0.147978  0  0.024087  0.086008  0  3.940134  0
C  C182  1  0.20043227  0.58134020  0.78048829  1  0.147962  0  0.024111  0.086045  0  3.94021  0
C  C183  1  0.79956711  0.91865925  0.28048898  1  0.148107  0  0.024064  0.085976  0  3.940294  0
C  C184  1  0.76850637  0.43156893  0.28678383  1  -0.067451  0  -0.003043  0.019127  0  3.91303  0
C  C185  1  0.23149123  0.06843102  0.78678314  1  -0.06747  0  -0.003028  0.019154  0  3.913078  0
C  C186  1  0.23149387  0.56843293  0.71321571  1  -0.067652  0  -0.003055  0.019131  0  3.913067  0
C  C187  1  0.76850621  0.93156773  0.21321640  1  -0.067446  0  -0.003063  0.019087  0  3.913095  0
C  C188  1  0.78828235  0.38441156  0.33843881  1  -0.037127  0  -0.095852  -0.134939  0  3.99969  0
C  C189  1  0.21171852  0.11558902  0.83843813  1  -0.037148  0  -0.095833  -0.134932  0  3.999759  0
C  C190  1  0.21171839  0.61558842  0.66156119  1  -0.037159  0  -0.095848  -0.134953  0  3.999644  0
C  C191  1  0.78828099  0.88441159  0.16156141  1  -0.037126  0  -0.095819  -0.134882  0  3.99965  0
C  C192  1  0.75031838  0.40026985  0.39595371  1  -0.036924  0  -0.097762  -0.091838  0  4.029841  0
C  C193  1  0.24968183  0.09973014  0.89595397  1  -0.036911  0  -0.097775  -0.091852  0  4.029806  0
C  C194  1  0.24968176  0.59973076  0.60404536  1  -0.036918  0  -0.097814  -0.091965  0  4.02981  0
C  C195  1  0.75031759  0.90026922  0.10404510  1  -0.036922  0  -0.09779  -0.091932  0  4.029799  0
C  C196  1  0.69410968  0.46340557  0.40159519  1  -0.019538  0  -0.095366  -0.085641  0  4.018689  0
C  C197  1  0.30588925  0.03659443  0.90159545  1  -0.019646  0  -0.095326  -0.085584  0  4.018564  0
C  C198  1  0.30588983  0.53659505  0.59840434  1  -0.019652  0  -0.095357  -0.085646  0  4.01863  0
C  C199  1  0.69411016  0.96340493  0.09840456  1  -0.019658  0  -0.095334  -0.085566  0  4.018568  0
C  C200  1  0.67561806  0.51197527  0.34972597  1  -0.073334  0  -0.095204  -0.133024  0  3.998989  0
C  C201  1  0.32438071  0.98802421  0.84972541  1  -0.073108  0  -0.095176  -0.132999  0  3.998957  0
C  C202  1  0.32438135  0.48802409  0.65027403  1  -0.073109  0  -0.095182  -0.133032  0  3.998943  0
C  C203  1  0.67561811  0.01197578  0.15027413  1  -0.073326  0  -0.095206  -0.133046  0  3.998978  0
C  C204  1  0.71271207  0.49555518  0.29254780  1  -0.025945  0  -0.002688  0.019736  0  3.916161  0
C  C205  1  0.28728682  0.00444476  0.79254758  1  -0.025935  0  -0.002737  0.019704  0  3.916159  0
C  C206  1  0.28728602  0.50444356  0.70745221  1  -0.025724  0  -0.002714  0.019777  0  3.916128  0
C  C207  1  0.71271337  0.99555647  0.20745196  1  -0.025876  0  -0.002732  0.019735  0  3.91621  0
C  C208  1  0.69536735  0.53933661  0.23047100  1  0.12626  0  0.024706  0.085877  0  3.934791  0
C  C209  1  0.30463338  0.96066405  0.73047089  1  0.126277  0  0.024728  0.08593  0  3.934719  0
C  C210  1  0.30463216  0.46066400  0.76952901  1  0.12627  0  0.024734  0.085895  0  3.934744  0
C  C211  1  0.69536863  0.03933592  0.26952865  1  0.126177  0  0.024726  0.085895  0  3.934856  0
C  C212  1  0.78366357  0.56828736  0.20329101  1  -0.100754  0  -0.006912  0.016194  0  3.919767  0
C  C213  1  0.21633642  0.93171205  0.70329181  1  -0.100751  0  -0.006939  0.016183  0  3.919721  0
C  C214  1  0.21633653  0.43171263  0.79670852  1  -0.100774  0  -0.006869  0.016242  0  3.919866  0
C  C215  1  0.78366363  0.06828732  0.29670819  1  -0.100775  0  -0.006941  0.016187  0  3.919876  0
C  C216  1  0.83946215  0.50438848  0.19815392  1  -0.050922  0  -0.005576  0.0181  0  3.919475  0
C  C217  1  0.16053783  0.99561092  0.69815380  1  -0.050801  0  -0.005602  0.018019  0  3.919467  0
C  C218  1  0.16053790  0.49561088  0.80184608  1  -0.050807  0  -0.005581  0.018049  0  3.919478  0
C  C219  1  0.83946158  0.00438844  0.30184574  1  -0.050963  0  -0.005601  0.018  0  3.919516  0
C  C220  1  0.92147726  0.52042486  0.17418101  1  -0.012651  0  -0.092939  -0.125929  0  3.988528  0
C  C221  1  0.07852334  0.97957453  0.67418086  1  -0.012637  0  -0.092914  -0.125862  0  3.988471  0
C  C222  1  0.07852283  0.47957513  0.82581946  1  -0.012638  0  -0.092917  -0.125844  0  3.98848  0
C  C223  1  0.92147666  0.02042421  0.32581868  1  -0.012516  0  -0.092896  -0.125825  0  3.988439  0
C  C224  1  0.94702362  0.60121072  0.15379940  1  -0.057792  0  -0.094442  -0.081975  0  4.013824  0
C  C225  1  0.05297698  0.89878866  0.65379923  1  -0.0578  0  -0.094448  -0.081971  0  4.013828  0
C  C226  1  0.05297643  0.39878864  0.84620014  1  -0.057785  0  -0.094439  -0.081949  0  4.013887  0
C  C227  1  0.94702307  0.10121070  0.34620031  1  -0.057872  0  -0.094461  -0.081969  0  4.013745  0
C  C228  1  0.89098377  0.66457928  0.15797148  1  0.00144  0  -0.096623  -0.084134  0  4.025746  0
C  C229  1  0.10901619  0.83542010  0.65797177  1  0.001426  0  -0.096673  -0.084252  0  4.025719  0
C  C230  1  0.10901697  0.33542070  0.84202806  1  0.001269  0  -0.09665  -0.084226  0  4.025785  0
C  C231  1  0.89098381  0.16457864  0.34202824  1  0.001361  0  -0.096641  -0.084186  0  4.025753  0
C  C232  1  0.80897763  0.64856784  0.18319630  1  0.029096  0  -0.096396  -0.129305  0  4.005872  0
C  C233  1  0.19102239  0.85143218  0.68319614  1  0.029101  0  -0.096367  -0.129239  0  4.005853  0
C  C234  1  0.19102188  0.35143277  0.81680324  1  0.02926  0  -0.09646  -0.129321  0  4.005946  0
C  C235  1  0.80897766  0.14856718  0.31680386  1  0.029092  0  -0.096395  -0.129291  0  4.00587  0
C  C236  1  0.71669041  0.40371934  0.18114748  1  -0.029314  0  -0.006702  0.015945  0  3.919442  0
C  C237  1  0.28330897  0.09627930  0.68114681  1  -0.029211  0  -0.006713  0.015955  0  3.919424  0
C  C238  1  0.28331033  0.59628064  0.81885206  1  -0.029289  0  -0.006688  0.015992  0  3.919356  0
C  C239  1  0.71668912  0.90371945  0.31885226  1  -0.029563  0  -0.006688  0.016034  0  3.919363  0
C  C240  1  0.69481165  0.33455690  0.14400860  1  -0.013726  0  -0.094434  -0.127175  0  4.002497  0
C  C241  1  0.30518839  0.16544234  0.64400889  1  -0.013818  0  -0.094464  -0.127228  0  4.002522  0
C  C242  1  0.30518913  0.66544371  0.85599141  1  -0.013724  0  -0.094462  -0.127234  0  4.002422  0
C  C243  1  0.69481102  0.83455702  0.35599112  1  -0.01372  0  -0.094427  -0.127194  0  4.002409  0
C  C244  1  0.61560777  0.32892296  0.11334348  1  -0.0727  0  -0.095043  -0.081988  0  4.017693  0
C  C245  1  0.38439168  0.17107689  0.61334332  1  -0.072686  0  -0.095045  -0.081972  0  4.017685  0
C  C246  1  0.38439233  0.67107702  0.88665653  1  -0.07273  0  -0.095057  -0.081969  0  4.017672  0
C  C247  1  0.61560719  0.82892372  0.38665622  1  -0.072708  0  -0.095038  -0.081998  0  4.017681  0
C  C248  1  0.55899334  0.39125369  0.12108404  1  -0.010004  0  -0.093289  -0.080909  0  4.015274  0
C  C249  1  0.44100675  0.10874617  0.62108341  1  -0.010001  0  -0.093259  -0.080899  0  4.015252  0
C  C250  1  0.44100681  0.60874692  0.87891596  1  -0.01001  0  -0.093265  -0.080915  0  4.015276  0
C  C251  1  0.55899203  0.89125320  0.37891520  1  -0.010003  0  -0.093287  -0.080891  0  4.015236  0
C  C252  1  0.58115977  0.46081334  0.15868913  1  -0.063157  0  -0.09395  -0.129667  0  3.992185  0
C  C253  1  0.41884097  0.03918654  0.65868894  1  -0.063159  0  -0.093977  -0.129657  0  3.992228  0
C  C254  1  0.41884033  0.53918665  0.84131134  1  -0.06315  0  -0.093983  -0.129701  0  3.992234  0
C  C255  1  0.58115976  0.96081345  0.34131106  1  -0.063177  0  -0.093952  -0.129642  0  3.992129  0
C  C256  1  0.66064896  0.46725519  0.18762310  1  -0.029457  0  -0.004615  0.019403  0  3.910175  0
C  C257  1  0.33935179  0.03274470  0.68762290  1  -0.029467  0  -0.004608  0.019384  0  3.910209  0
C  C258  1  0.33935114  0.53274479  0.81237737  1  -0.029467  0  -0.00464  0.019335  0  3.910203  0
C  C259  1  0.66064830  0.96725529  0.31237664  1  -0.029216  0  -0.004627  0.019348  0  3.910178  0
C  C260  1  0.63908293  0.60642794  0.23637935  1  -0.368663  0  -0.017632  -0.053482  0  4.011605  0
C  C261  1  0.36091839  0.89357210  0.73637924  1  -0.36863  0  -0.017624  -0.053473  0  4.011486  0
C  C262  1  0.36091850  0.39357266  0.76362112  1  -0.368629  0  -0.0176  -0.053404  0  4.011544  0
C  C263  1  0.63908293  0.10642726  0.26362030  1  -0.368657  0  -0.017598  -0.053421  0  4.011544  0
C  C264  1  0.59374407  0.66435979  0.24086581  1  0.058803  0  -0.03278  -0.104885  0  4.057218  0
C  C265  1  0.40625588  0.83563900  0.74086569  1  0.058792  0  -0.032822  -0.104962  0  4.056985  0
C  C266  1  0.40625598  0.33563957  0.75913420  1  0.058778  0  -0.03283  -0.105011  0  4.057095  0
C  C267  1  0.59374412  0.16435973  0.25913385  1  0.058826  0  -0.032847  -0.105034  0  4.05711  0
C  C268  1  0.53719304  0.72901220  0.24555253  1  0.076224  0  0.025675  0.185049  0  4.083925  0
C  C269  1  0.46280898  0.77098847  0.74555334  1  0.076239  0  0.025737  0.185144  0  4.083691  0
C  C270  1  0.46280770  0.27098779  0.75444794  1  0.076224  0  0.025685  0.185133  0  4.083739  0
C  C271  1  0.53719245  0.22901214  0.25444759  1  0.076252  0  0.025702  0.185184  0  4.083712  0
C  C272  1  0.46148073  0.71649890  0.28053502  1  0.032887  0  -0.071316  -0.157944  0  3.8852  0
C  C273  1  0.53851997  0.78350116  0.78053492  1  0.032728  0  -0.071358  -0.158018  0  3.885261  0
C  C274  1  0.53851937  0.28350108  0.71946545  1  0.032856  0  -0.071332  -0.157977  0  3.885218  0
C  C275  1  0.46148081  0.21649945  0.21946461  1  0.032867  0  -0.071338  -0.158024  0  3.885217  0
C  C276  1  0.40426973  0.77826998  0.28169192  1  0.429857  0  0.056349  0.104769  0  3.917951  0
C  C277  1  0.59572965  0.72172947  0.78169135  1  0.43001  0  0.056381  0.104819  0  3.918009  0
C  C278  1  0.59572909  0.22173001  0.71830855  1  0.429871  0  0.056343  0.104712  0  3.918022  0
C  C279  1  0.40427040  0.27826989  0.21830772  1  0.429905  0  0.056351  0.104788  0  3.917944  0
C  C280  1  0.49278200  0.86451036  0.21869530  1  0.446048  0  0.053213  0.100518  0  3.939878  0
C  C281  1  0.50721804  0.63548968  0.71869469  1  0.445977  0  0.053202  0.100545  0  3.939873  0
C  C282  1  0.50721810  0.13548963  0.78130564  1  0.445887  0  0.053241  0.100574  0  3.939843  0
C  C283  1  0.49278211  0.36451093  0.28130531  1  0.446018  0  0.05322  0.100516  0  3.939868  0
C  C284  1  0.55327302  0.80586854  0.21488137  1  0.024591  0  -0.069529  -0.158651  0  3.89801  0
C  C285  1  0.44672825  0.69413086  0.71488123  1  0.024608  0  -0.069545  -0.158653  0  3.898029  0
C  C286  1  0.44672772  0.19413144  0.78511956  1  0.024592  0  -0.069539  -0.158668  0  3.898058  0
C  C287  1  0.55327313  0.30586912  0.28511877  1  0.0246  0  -0.069514  -0.15866  0  3.897976  0
C  C288  1  0.34039114  0.09645964  0.31613826  1  1.54642  0  0.213053  0.587402  0  4.184377  0
C  C289  1  0.65960967  0.40354031  0.81613869  1  1.546469  0  0.213016  0.587362  0  4.184554  0
C  C290  1  0.65960896  0.90354034  0.68386127  1  1.546468  0  0.21302  0.587302  0  4.184598  0
C  C291  1  0.34039106  0.59645968  0.18386132  1  1.546412  0  0.213036  0.587348  0  4.184442  0
C  C292  1  0.38417685  0.15098441  0.36471101  1  -0.012397  0  -0.020691  -0.039741  0  3.972972  0
C  C293  1  0.61582398  0.34901556  0.86471048  1  -0.012466  0  -0.0207  -0.039836  0  3.973064  0
C  C294  1  0.61582324  0.84901557  0.63528946  1  -0.012471  0  -0.020694  -0.039774  0  3.973041  0
C  C295  1  0.38417681  0.65098505  0.13528999  1  -0.012389  0  -0.0207  -0.039783  0  3.972953  0
C  C296  1  0.36536465  0.23438939  0.37120620  1  -0.047721  0  -0.087345  -0.093725  0  3.986033  0
C  C297  1  0.63463491  0.26561059  0.87120519  1  -0.047898  0  -0.08732  -0.093617  0  3.985916  0
C  C298  1  0.63463550  0.76561122  0.62879427  1  -0.048132  0  -0.087355  -0.093726  0  3.98596  0
C  C299  1  0.36536396  0.73439002  0.12879435  1  -0.047849  0  -0.087359  -0.093712  0  3.985933  0
C  C300  1  0.41022706  0.28649422  0.41351989  1  -0.059646  0  -0.090908  -0.132887  0  3.966069  0
C  C301  1  0.58977380  0.21350578  0.91351979  1  -0.059907  0  -0.090898  -0.132847  0  3.965987  0
C  C302  1  0.58977240  0.71350577  0.58648011  1  -0.059642  0  -0.090907  -0.132861  0  3.966057  0
C  C303  1  0.41022699  0.78649483  0.08648068  1  -0.059932  0  -0.090858  -0.132786  0  3.965944  0
C  C304  1  0.47535403  0.25649346  0.45057726  1  0.004533  0  -0.008891  0.061205  0  4.014273  0
C  C305  1  0.52464557  0.24350655  0.95057622  1  0.004739  0  -0.0089  0.061135  0  4.014225  0
C  C306  1  0.52464543  0.74350652  0.54942414  1  0.004798  0  -0.008891  0.061144  0  4.014223  0
C  C307  1  0.47535517  0.75649343  0.04942378  1  0.004578  0  -0.008905  0.06112  0  4.014216  0
C  C308  1  0.49168447  0.17175152  0.44522406  1  -0.073755  0  -0.091336  -0.133393  0  3.9871  0
C  C309  1  0.50831581  0.32824912  0.94522304  1  -0.073767  0  -0.091401  -0.133404  0  3.987224  0
C  C310  1  0.50831700  0.82824971  0.55477594  1  -0.073773  0  -0.091364  -0.133389  0  3.987198  0
C  C311  1  0.49168365  0.67175087  0.05477650  1  -0.073777  0  -0.091396  -0.13341  0  3.987294  0
C  C312  1  0.44658767  0.11979233  0.40319307  1  -0.026613  0  -0.084475  -0.085275  0  3.987295  0
C  C313  1  0.55341058  0.38020705  0.90319160  1  -0.026611  0  -0.084428  -0.085228  0  3.98729  0
C  C314  1  0.55341247  0.88020828  0.59680693  1  -0.026626  0  -0.084428  -0.085152  0  3.987294  0
C  C315  1  0.44658957  0.61979356  0.09680794  1  -0.02661  0  -0.084394  -0.085163  0  3.98733  0
C  C316  1  0.52514679  0.31059450  0.49490108  1  -0.017095  0  -0.002563  0.072173  0  4.001371  0
C  C317  1  0.47485283  0.18940554  0.99490095  1  -0.017251  0  -0.002571  0.072145  0  4.001291  0
C  C318  1  0.47485263  0.68940486  0.50509892  1  -0.017226  0  -0.002551  0.072264  0  4.001201  0
C  C319  1  0.52514668  0.81059507  0.00509859  1  -0.017082  0  -0.002568  0.072181  0  4.001248  0
C  C320  1  0.48950465  0.37841585  0.52416526  1  -0.038333  0  -0.09164  -0.138711  0  3.986148  0
C  C321  1  0.51049539  0.12158396  0.02416581  1  -0.038293  0  -0.09161  -0.138685  0  3.986053  0
C  C322  1  0.51049535  0.62158288  0.47583474  1  -0.038306  0  -0.091605  -0.138698  0  3.986135  0
C  C323  1  0.48950475  0.87841665  0.97583466  1  -0.038312  0  -0.091618  -0.138708  0  3.98612  0
C  C324  1  0.53475939  0.42476011  0.56965995  1  -0.059976  0  -0.087684  -0.096404  0  4.002223  0
C  C325  1  0.46523999  0.07523910  0.06966001  1  -0.059988  0  -0.087719  -0.096435  0  4.002273  0
C  C326  1  0.46524066  0.57523925  0.43033959  1  -0.059991  0  -0.087683  -0.096401  0  4.002222  0
C  C327  1  0.53476011  0.92476089  0.93034000  1  -0.059985  0  -0.087704  -0.096415  0  4.002276  0
C  C328  1  0.61707830  0.40472546  0.58710277  1  0.001506  0  -0.024696  -0.050132  0  3.991853  0
C  C329  1  0.38292177  0.09527439  0.08710375  1  0.0014  0  -0.02472  -0.05015  0  3.991904  0
C  C330  1  0.38292180  0.59527453  0.41289724  1  0.001489  0  -0.024702  -0.050145  0  3.991914  0
C  C331  1  0.61707833  0.90472560  0.91289719  1  0.001486  0  -0.024718  -0.050124  0  3.99184  0
C  C332  1  0.65475359  0.34013762  0.55589972  1  -0.069785  0  -0.085486  -0.09008  0  3.99002  0
C  C333  1  0.34524710  0.15986221  0.05590025  1  -0.0697  0  -0.08544  -0.090057  0  3.990027  0
C  C334  1  0.34524715  0.65986236  0.44410028  1  -0.069793  0  -0.085498  -0.090114  0  3.990083  0
C  C335  1  0.65475295  0.84013716  0.94410022  1  -0.069786  0  -0.085444  -0.090083  0  3.989997  0
C  C336  1  0.60957890  0.29392727  0.51047210  1  -0.075828  0  -0.08916  -0.133073  0  3.981426  0
C  C337  1  0.39042050  0.20607253  0.01047172  1  -0.075834  0  -0.089228  -0.133102  0  3.981441  0
C  C338  1  0.39042056  0.70607271  0.48952790  1  -0.075835  0  -0.089174  -0.133105  0  3.981448  0
C  C339  1  0.60957960  0.79392745  0.98952782  1  -0.075841  0  -0.08922  -0.133075  0  3.981379  0
C  C340  1  0.66169832  0.44642066  0.64164441  1  1.57642  0  0.208188  0.576096  0  4.204375  0
C  C341  1  0.33830256  0.05358108  0.14164537  1  1.576296  0  0.208194  0.576114  0  4.204329  0
C  C342  1  0.33830247  0.55357994  0.35835560  1  1.576404  0  0.208209  0.576126  0  4.204307  0
C  C343  1  0.66169764  0.94642016  0.85835557  1  1.576408  0  0.208237  0.576167  0  4.204257  0
C  C344  1  0.81432352  0.58006310  0.83530151  1  1.575757  0  0.212601  0.585236  0  4.186409  0
C  C345  1  0.18567657  0.91993699  0.33530207  1  1.575762  0  0.212637  0.585401  0  4.186276  0
C  C346  1  0.18567530  0.41993689  0.16469803  1  1.575734  0  0.212582  0.585396  0  4.186326  0
C  C347  1  0.81432353  0.08006299  0.66469794  1  1.575759  0  0.212628  0.585441  0  4.186222  0
C  C348  1  0.86185765  0.62486139  0.88715864  1  0.001265  0  -0.020698  -0.03931  0  3.975658  0
C  C349  1  0.13814252  0.87513935  0.38715871  1  0.001232  0  -0.020758  -0.039468  0  3.975673  0
C  C350  1  0.13814113  0.37513798  0.11284136  1  0.001262  0  -0.020727  -0.039409  0  3.97562  0
C  C351  1  0.86185832  0.12486188  0.61284223  1  0.001236  0  -0.020727  -0.039509  0  3.975814  0
C  C352  1  0.92320273  0.58518875  0.92147141  1  0.021623  0  -0.084456  -0.08688  0  3.986323  0
C  C353  1  0.07679804  0.91481138  0.42147148  1  0.021623  0  -0.084446  -0.086853  0  3.986335  0
C  C354  1  0.07679801  0.41481123  0.07852906  1  0.021588  0  -0.084457  -0.086877  0  3.986391  0
C  C355  1  0.92320147  0.08518923  0.57852899  1  0.021528  0  -0.084446  -0.08685  0  3.986424  0
C  C356  1  0.97255334  0.62916673  0.96600714  1  -0.044978  0  -0.089501  -0.131114  0  3.978695  0
C  C357  1  0.02744730  0.87083155  0.46600625  1  -0.045011  0  -0.089498  -0.131103  0  3.978746  0
C  C358  1  0.02744735  0.37083262  0.03399379  1  -0.045014  0  -0.089466  -0.131094  0  3.978718  0
C  C359  1  0.97255211  0.12916782  0.53399422  1  -0.044931  0  -0.089522  -0.131169  0  3.978866  0
C  C360  1  0.96228448  0.71415823  0.97717089  1  -0.058111  0  -0.00508  0.070705  0  4.00271  0
C  C361  1  0.03771621  0.78584068  0.47717045  1  -0.058066  0  -0.005061  0.070774  0  4.002698  0
C  C362  1  0.03771620  0.28584113  0.02283004  1  -0.058064  0  -0.005058  0.070791  0  4.002641  0
C  C363  1  0.96228330  0.21415993  0.52283002  1  -0.057918  0  -0.005099  0.070754  0  4.002621  0
C  C364  1  0.89903935  0.75292065  0.94347801  1  -0.111534  0  -0.09407  -0.140653  0  3.987721  0
C  C365  1  0.10096202  0.74707886  0.44347804  1  -0.111581  0  -0.094106  -0.140783  0  3.987878  0
C  C366  1  0.10096139  0.24707933  0.05652246  1  -0.111569  0  -0.0941  -0.140763  0  3.987846  0
C  C367  1  0.89903749  0.25292175  0.55652196  1  -0.111676  0  -0.09404  -0.140699  0  3.987778  0
C  C368  1  0.84924367  0.70876947  0.89938567  1  -0.052935  0  -0.087585  -0.091249  0  3.998948  0
C  C369  1  0.15075640  0.79123003  0.39938571  1  -0.052926  0  -0.087528  -0.0911  0  3.998892  0
C  C370  1  0.15075638  0.29122989  0.10061434  1  -0.052962  0  -0.087562  -0.09119  0  3.998863  0
C  C371  1  0.84924433  0.20876996  0.60061476  1  -0.052958  0  -0.087574  -0.091157  0  3.99905  0
C  C372  1  0.01606742  0.76160361  0.02308486  1  -0.015647  0  -0.003469  0.072963  0  4.002634  0
C  C373  1  0.98393249  0.73839571  0.52308438  1  -0.015664  0  -0.003507  0.072898  0  4.002627  0
C  C374  1  0.98393199  0.23839576  0.97691654  1  -0.015675  0  -0.003482  0.072958  0  4.002681  0
C  C375  1  0.01606766  0.26160490  0.47691655  1  -0.015371  0  -0.003527  0.072926  0  4.002543  0
C  C376  1  0.10052325  0.74188350  0.03531375  1  -0.065756  0  -0.08871  -0.132105  0  3.969658  0
C  C377  1  0.89947734  0.75811645  0.53531326  1  -0.065775  0  -0.088684  -0.131999  0  3.969648  0
C  C378  1  0.89947680  0.25811587  0.96468672  1  -0.06576  0  -0.088712  -0.132083  0  3.96966  0
C  C379  1  0.10052280  0.24188416  0.46468628  1  -0.066182  0  -0.088687  -0.132059  0  3.969577  0
C  C380  1  0.15022776  0.78586460  0.07974422  1  0.009394  0  -0.082462  -0.079198  0  3.967344  0
C  C381  1  0.84977227  0.71413599  0.57974371  1  0.009398  0  -0.082482  -0.079313  0  3.967375  0
C  C382  1  0.84977293  0.21413476  0.92025532  1  0.009394  0  -0.08247  -0.079312  0  3.967452  0
C  C383  1  0.15022724  0.28586462  0.42025537  1  0.009385  0  -0.082457  -0.07926  0  3.967365  0
C  C384  1  0.11684628  0.85082244  0.11337003  1  -0.02847  0  -0.022233  -0.047699  0  3.98458  0
C  C385  1  0.88315376  0.64917817  0.61336858  1  -0.028422  0  -0.022226  -0.047691  0  3.98454  0
C  C386  1  0.88315377  0.14917693  0.88663044  1  -0.028482  0  -0.022247  -0.047628  0  3.984537  0
C  C387  1  0.11684575  0.35082244  0.38663049  1  -0.028476  0  -0.02223  -0.047644  0  3.984511  0
C  C388  1  0.03303857  0.87147589  0.10095252  1  -0.022897  0  -0.087102  -0.090212  0  3.996243  0
C  C389  1  0.96696211  0.62852471  0.60095295  1  -0.023341  0  -0.087065  -0.090094  0  3.996188  0
C  C390  1  0.96696217  0.12852409  0.89904795  1  -0.023132  0  -0.087071  -0.090117  0  3.99615  0
C  C391  1  0.03303809  0.37147652  0.39904799  1  -0.022934  0  -0.087113  -0.090235  0  3.996125  0
C  C392  1  0.98365240  0.82785155  0.05640433  1  -0.075579  0  -0.093338  -0.138112  0  3.996211  0
C  C393  1  0.01634762  0.67214903  0.55640502  1  -0.075401  0  -0.093384  -0.138249  0  3.996329  0
C  C394  1  0.01634721  0.17215031  0.94359521  1  -0.075388  0  -0.093373  -0.138239  0  3.996386  0
C  C395  1  0.98365248  0.32785096  0.44359592  1  -0.07558  0  -0.093334  -0.138165  0  3.996171  0
C  C396  1  0.16838650  0.89753655  0.16254870  1  1.55231  0  0.210135  0.576264  0  4.196807  0
C  C397  1  0.83161420  0.60246408  0.66254769  1  1.552305  0  0.210131  0.57626  0  4.196738  0
C  C398  1  0.83161365  0.10246406  0.83745130  1  1.552307  0  0.210149  0.576233  0  4.196846  0
C  C399  1  0.16838654  0.39753590  0.33745184  1  1.552304  0  0.210169  0.576293  0  4.196658  0
N  N400  1  0.10184582  0.13322948  0.22434457  1  -1.262428  0  -0.325186  -0.219257  0  3.530788  0
N  N401  1  0.89815431  0.36677043  0.72434410  1  -1.262249  0  -0.325178  -0.219262  0  3.53088  0
N  N402  1  0.89815428  0.86677051  0.77565544  1  -1.262273  0  -0.325184  -0.219259  0  3.530845  0
N  N403  1  0.10184510  0.63322893  0.27565544  1  -1.262454  0  -0.325254  -0.219339  0  3.530872  0
N  N404  1  0.41895330  0.85084321  0.25063187  1  -1.25309  0  -0.327611  -0.224809  0  3.530172  0
N  N405  1  0.58104739  0.64915684  0.75063175  1  -1.253103  0  -0.327624  -0.224845  0  3.53018  0
N  N406  1  0.58104748  0.14915740  0.74936860  1  -1.253059  0  -0.327649  -0.224882  0  3.530289  0
N  N407  1  0.41895207  0.35084315  0.24936826  1  -1.253068  0  -0.327611  -0.224804  0  3.530165  0
O  O408  1  0.28126659  0.12742295  0.28454773  1  -1.170872  0  -0.318323  -0.552311  0  2.355539  0
O  O409  1  0.71873357  0.37257698  0.78454816  1  -1.170887  0  -0.318302  -0.552269  0  2.355581  0
O  O410  1  0.71873292  0.87257766  0.71545135  1  -1.170855  0  -0.318304  -0.55226  0  2.355672  0
O  O411  1  0.28126717  0.62742300  0.21545185  1  -1.17087  0  -0.318311  -0.552287  0  2.355555  0
O  O412  1  0.36637813  0.02378006  0.30908047  1  -1.172413  0  -0.314904  -0.547265  0  2.32281  0
O  O413  1  0.63362199  0.47621926  0.80907997  1  -1.172394  0  -0.314885  -0.547247  0  2.3228  0
O  O414  1  0.63362265  0.97622055  0.69091954  1  -1.172415  0  -0.314917  -0.547247  0  2.322825  0
O  O415  1  0.36637742  0.52378010  0.19092050  1  -1.172402  0  -0.314919  -0.547251  0  2.322813  0
O  O416  1  0.61879975  0.49640453  0.67316508  1  -1.175208  0  -0.316707  -0.550269  0  2.355804  0
O  O417  1  0.38120105  0.00359597  0.17316511  1  -1.175118  0  -0.316693  -0.550219  0  2.355733  0
O  O418  1  0.38120173  0.50359670  0.32683539  1  -1.17525  0  -0.316726  -0.550296  0  2.355702  0
O  O419  1  0.61879836  0.99640339  0.82683489  1  -1.175241  0  -0.316724  -0.550298  0  2.355654  0
O  O420  1  0.73686577  0.42641992  0.65395200  1  -1.174304  0  -0.316218  -0.545329  0  2.317617  0
O  O421  1  0.26313428  0.07357933  0.15395295  1  -1.174321  0  -0.316187  -0.545302  0  2.317717  0
O  O422  1  0.26313496  0.57358007  0.34604800  1  -1.174288  0  -0.316205  -0.545292  0  2.317664  0
O  O423  1  0.73686513  0.92642003  0.84604752  1  -1.174306  0  -0.316204  -0.545313  0  2.317661  0
O  O424  1  0.75677036  0.61929546  0.80813549  1  -1.169873  0  -0.317556  -0.55389  0  2.368575  0
O  O425  1  0.24322972  0.88070462  0.30813558  1  -1.169898  0  -0.317534  -0.553942  0  2.368538  0
O  O426  1  0.24322847  0.38070453  0.19186405  1  -1.169834  0  -0.317524  -0.553955  0  2.368506  0
O  O427  1  0.75677101  0.11929536  0.69186489  1  -1.169866  0  -0.317549  -0.553963  0  2.368518  0
O  O428  1  0.83631568  0.50784947  0.82093349  1  -1.170462  0  -0.316878  -0.542441  0  2.30688  0
O  O429  1  0.16368631  0.99215061  0.32093359  1  -1.170473  0  -0.316917  -0.542501  0  2.306853  0
O  O430  1  0.16368569  0.49215051  0.17906698  1  -1.170461  0  -0.3169  -0.542476  0  2.306876  0
O  O431  1  0.83631511  0.00785000  0.67906641  1  -1.17047  0  -0.316903  -0.542491  0  2.306817  0
O  O432  1  0.13031497  0.95325824  0.19205180  1  -1.181243  0  -0.319514  -0.560799  0  2.376366  0
O  O433  1  0.86968579  0.54674303  0.69205172  1  -1.181221  0  -0.319503  -0.560811  0  2.376323  0
O  O434  1  0.86968576  0.04674174  0.80794867  1  -1.181243  0  -0.319531  -0.560789  0  2.376368  0
O  O435  1  0.13031431  0.45325696  0.30794875  1  -1.181217  0  -0.319534  -0.560825  0  2.376234  0
O  O436  1  0.24441125  0.87828678  0.17263240  1  -1.168147  0  -0.30572  -0.534855  0  2.314996  0
O  O437  1  0.75558946  0.62171386  0.67263324  1  -1.168126  0  -0.305717  -0.534846  0  2.314969  0
O  O438  1  0.75558880  0.12171258  0.82736807  1  -1.168134  0  -0.305703  -0.534833  0  2.315011  0
O  O439  1  0.24441133  0.37828675  0.32736769  1  -1.168151  0  -0.305724  -0.534872  0  2.315005  0
