# generated using pymatgen
data_CoH34C36(N2O3)2
_symmetry_space_group_name_H-M   'P 1'
_cell_length_a   11.22625012
_cell_length_b   12.86171458
_cell_length_c   41.69104421
_cell_angle_alpha   94.18386162
_cell_angle_beta   89.99919892
_cell_angle_gamma   115.87457490
_symmetry_Int_Tables_number   1
_chemical_formula_structural   CoH34C36(N2O3)2
_chemical_formula_sum   'Co6 H204 C216 N24 O36'
_cell_volume   5398.42086491
_cell_formula_units_Z   6
loop_
 _symmetry_equiv_pos_site_id
 _symmetry_equiv_pos_as_xyz
  1  'x, y, z'
loop_
 _atom_site_type_symbol
 _atom_site_label
 _atom_site_symmetry_multiplicity
 _atom_site_fract_x
 _atom_site_fract_y
 _atom_site_fract_z
 _atom_site_occupancy
 _atom_site_pbe_bader_charge
 _atom_site_pbe_bader_spin_density
 _atom_site_pbe_cm5_charge
 _atom_site_pbe_ddec_charge
 _atom_site_pbe_ddec_spin_density
 _atom_site_pbe_ddec_sum_bond_order
 _atom_site_pbe_magmom
Co  Co0  1  0.55733076  0.60019383  0.64829258  1  1.20431  2.567071  0.680574  0.827642  2.78208  2.529081  2.506
Co  Co1  1  0.95696664  0.39995381  0.85171110  1  1.203445  2.566854  0.680515  0.827491  2.783281  2.530502  2.506
Co  Co2  1  0.44266518  0.39980135  0.35170673  1  1.204209  2.56708  0.680602  0.827735  2.782085  2.528954  2.506
Co  Co3  1  0.04302971  0.60004397  0.14828948  1  1.203446  2.566849  0.680533  0.827555  2.78327  2.530512  2.506
Co  Co4  1  0.18095078  0.99989000  0.75000759  1  1.194222  2.548436  0.664081  0.79472  2.768711  2.56825  2.496
Co  Co5  1  0.81904603  0.00010691  0.24999200  1  1.19426  2.548426  0.664128  0.79474  2.768707  2.568286  2.496
H  H6  1  0.07827703  0.21983020  0.33328996  1  0.061337  0.000301  0.101027  0.098795  4.3e-05  1.036954  0.0
H  H7  1  0.85883683  0.78054109  0.16668987  1  0.084165  0.000296  0.100894  0.098554  4.2e-05  1.036005  0.0
H  H8  1  0.92171978  0.78016671  0.66670844  1  0.061389  0.000301  0.101041  0.098883  4.3e-05  1.036907  0.0
H  H9  1  0.14116966  0.21946449  0.83330920  1  0.08401  0.000296  0.100867  0.098502  4.2e-05  1.036029  0.0
H  H10  1  0.17550376  0.27597278  0.38928600  1  0.146327  0.000317  0.105134  0.126995  1.9e-05  1.035326  0.0
H  H11  1  0.89960207  0.72429738  0.11067212  1  0.143068  0.000307  0.104894  0.126486  2.2e-05  1.035078  0.0
H  H12  1  0.82449473  0.72403107  0.61071231  1  0.146231  0.000317  0.105138  0.126981  1.9e-05  1.03536  0.0
H  H13  1  0.10040887  0.27570820  0.88932743  1  0.14334  0.000307  0.104857  0.126453  2.2e-05  1.035152  0.0
H  H14  1  0.02005937  0.91346750  0.40641476  1  0.06807  8.4e-05  0.099154  0.109344  3.3e-05  1.049942  0.0
H  H15  1  0.10637698  0.08677756  0.09346443  1  0.043099  8.3e-05  0.09909  0.108783  3.2e-05  1.050063  0.0
H  H16  1  0.97993510  0.08653722  0.59358477  1  0.068052  8.4e-05  0.099187  0.109361  3.3e-05  1.049858  0.0
H  H17  1  0.89363305  0.91322976  0.90653612  1  0.043233  8.3e-05  0.099155  0.108846  3.2e-05  1.050042  0.0
H  H18  1  0.93269224  0.86056142  0.35041052  1  0.022003  0.000115  0.093807  0.081056  2.6e-05  1.072889  0.0
H  H19  1  0.07212524  0.13976315  0.14949354  1  0.060559  0.000126  0.093643  0.081536  3.5e-05  1.072309  0.0
H  H20  1  0.06729874  0.13943810  0.64958962  1  0.022007  0.000115  0.093785  0.08108  2.6e-05  1.072943  0.0
H  H21  1  0.92787855  0.86024417  0.85050677  1  0.060656  0.000126  0.093682  0.081602  3.5e-05  1.072344  0.0
H  H22  1  0.15655390  0.98995326  0.44932557  1  0.042249  3.4e-05  0.100558  0.068579  1.5e-05  1.025974  0.0
H  H23  1  0.16633788  0.01026469  0.05058431  1  0.043922  3.5e-05  0.100567  0.068783  1.5e-05  1.025711  0.0
H  H24  1  0.84345485  0.01004973  0.55067224  1  0.042366  3.4e-05  0.100583  0.068582  1.5e-05  1.026103  0.0
H  H25  1  0.83366772  0.98974090  0.94941572  1  0.044023  3.5e-05  0.100591  0.068823  1.5e-05  1.025695  0.0
H  H26  1  0.00449632  0.99923610  0.45283566  1  0.042354  3.6e-05  0.100869  0.062589  1.7e-05  1.036762  0.0
H  H27  1  0.00484771  0.00068336  0.04709689  1  0.054483  3.7e-05  0.101289  0.062634  1.7e-05  1.037635  0.0
H  H28  1  0.99550896  0.00075995  0.54716272  1  0.042288  3.6e-05  0.100877  0.062555  1.7e-05  1.036855  0.0
H  H29  1  0.99515827  0.99932657  0.95290372  1  0.054697  3.7e-05  0.101253  0.062583  1.7e-05  1.03768  0.0
H  H30  1  0.92574698  0.21947869  0.49230053  1  0.017133  0.0  0.089164  0.122083  -0.0  1.023133  0.0
H  H31  1  0.70608186  0.78079713  0.00770562  1  0.023301  0.0  0.089158  0.122244  -0.0  1.023248  0.0
H  H32  1  0.07425123  0.78051389  0.50769825  1  0.017079  0.0  0.089135  0.122111  -0.0  1.02305  0.0
H  H33  1  0.29391974  0.21920759  0.99229511  1  0.02322  0.0  0.089176  0.122297  -0.0  1.023192  0.0
H  H34  1  0.93753069  0.12021947  0.46247263  1  0.064435  2e-06  0.095863  0.136623  1e-06  1.015982  0.0
H  H35  1  0.81736555  0.88003772  0.03749665  1  0.063514  2e-06  0.095991  0.13728  1e-06  1.015458  0.0
H  H36  1  0.06247148  0.87977572  0.53752620  1  0.064496  2e-06  0.095899  0.136653  1e-06  1.015998  0.0
H  H37  1  0.18263429  0.11996526  0.96250404  1  0.063653  2e-06  0.095983  0.137258  1e-06  1.015497  0.0
H  H38  1  0.04446765  0.26857699  0.46180557  1  0.052414  4e-06  0.096156  0.137443  -2e-06  0.986981  0.0
H  H39  1  0.77575309  0.73165331  0.03817347  1  0.05677  4e-06  0.096297  0.137806  -2e-06  0.987314  0.0
H  H40  1  0.95552918  0.73141819  0.53819278  1  0.05236  4e-06  0.096194  0.137451  -2e-06  0.986944  0.0
H  H41  1  0.22425253  0.26835054  0.96182604  1  0.056712  4e-06  0.096331  0.137814  -2e-06  0.987169  0.0
H  H42  1  0.13897644  0.39352770  0.55885552  1  0.048513  -0.0  0.104191  0.073394  -9e-06  0.990015  0.0
H  H43  1  0.74484362  0.60657429  0.94109864  1  0.044985  1e-06  0.103986  0.073946  -9e-06  0.990187  0.0
H  H44  1  0.86102169  0.60647008  0.44114289  1  0.048491  -0.0  0.104149  0.073331  -9e-06  0.990041  0.0
H  H45  1  0.25515976  0.39343043  0.05890257  1  0.044891  1e-06  0.10402  0.073993  -9e-06  0.990185  0.0
H  H46  1  0.05003967  0.36359405  0.52139485  1  0.06776  -2e-06  0.103256  0.071398  -2e-06  0.991069  0.0
H  H47  1  0.68608870  0.63668719  0.97857728  1  0.042048  -1e-06  0.103224  0.072018  -1e-06  0.990812  0.0
H  H48  1  0.94996065  0.63640633  0.47860338  1  0.06799  -2e-06  0.103268  0.071454  -2e-06  0.99104  0.0
H  H49  1  0.31391331  0.36332013  0.02142279  1  0.04202  -1e-06  0.103213  0.072032  -1e-06  0.990733  0.0
H  H50  1  0.29097627  0.24177642  0.59919980  1  0.072152  -1.5e-05  0.097181  0.140801  -4.3e-05  1.015272  0.0
H  H51  1  0.04909823  0.75807192  0.90078998  1  0.068197  -1.3e-05  0.096955  0.140702  -4.1e-05  1.015053  0.0
H  H52  1  0.70902095  0.75822310  0.40079961  1  0.072235  -1.5e-05  0.097197  0.140864  -4.3e-05  1.015248  0.0
H  H53  1  0.95090340  0.24193106  0.09921047  1  0.068193  -1.3e-05  0.096937  0.140708  -4.1e-05  1.015089  0.0
H  H54  1  0.17779965  0.30001789  0.59385672  1  0.028225  8e-06  0.088513  0.123712  -2.3e-05  1.023679  0.0
H  H55  1  0.87766057  0.69969132  0.90607561  1  0.028203  5e-06  0.088674  0.123502  -2.5e-05  1.024731  0.0
H  H56  1  0.82219891  0.69998076  0.40614219  1  0.028156  8e-06  0.088538  0.123765  -2.3e-05  1.023695  0.0
H  H57  1  0.12234238  0.30031253  0.09392462  1  0.028186  5e-06  0.088679  0.123509  -2.5e-05  1.024683  0.0
H  H58  1  0.34476619  0.37842071  0.58330496  1  0.058158  3.6e-05  0.0968  0.139282  -4.2e-05  0.985225  0.0
H  H59  1  0.96635161  0.62141427  0.91667841  1  0.055501  4.4e-05  0.096743  0.139464  -3.5e-05  0.98504  0.0
H  H60  1  0.65523146  0.62157968  0.41669423  1  0.058141  3.6e-05  0.0968  0.139289  -4.2e-05  0.985307  0.0
H  H61  1  0.03365088  0.37859045  0.08332256  1  0.055441  4.4e-05  0.096734  0.139495  -3.5e-05  0.985051  0.0
H  H62  1  0.44591913  0.11326959  0.54522497  1  0.012457  9e-06  0.101451  0.069117  5e-06  1.02484  0.0
H  H63  1  0.33244524  0.88669309  0.95478191  1  0.064707  3e-06  0.101284  0.068844  1e-06  1.024863  0.0
H  H64  1  0.55408473  0.88673253  0.45477402  1  0.012442  9e-06  0.101481  0.06915  5e-06  1.024867  0.0
H  H65  1  0.66755590  0.11331250  0.04521740  1  0.064719  3e-06  0.101321  0.068861  1e-06  1.024809  0.0
H  H66  1  0.45124180  0.22707179  0.57252506  1  0.073444  2e-06  0.104608  0.081332  -2.9e-05  0.985333  0.0
H  H67  1  0.22422799  0.77309036  0.92738239  1  0.065269  1.6e-05  0.104686  0.080956  -1.5e-05  0.98635  0.0
H  H68  1  0.54875547  0.77292426  0.42747548  1  0.073397  2e-06  0.104586  0.081285  -2.9e-05  0.985348  0.0
H  H69  1  0.77577363  0.22691263  0.07261830  1  0.06518  1.6e-05  0.104666  0.080942  -1.5e-05  0.986367  0.0
H  H70  1  0.33843226  0.98240678  0.51548347  1  0.02963  0.0  0.09208  0.127163  0.0  1.021553  0.0
H  H71  1  0.35578442  0.01767114  0.98448033  1  0.023673  -0.0  0.091905  0.127213  0.0  1.020753  0.0
H  H72  1  0.66156720  0.01759187  0.48451616  1  0.029755  0.0  0.092081  0.127132  0.0  1.021524  0.0
H  H73  1  0.64422123  0.98233098  0.01552058  1  0.02364  -0.0  0.091925  0.12727  0.0  1.020748  0.0
H  H74  1  0.39591112  0.06305909  0.48133855  1  0.042379  -0.0  0.094368  0.134981  -0.0  0.987176  0.0
H  H75  1  0.33267240  0.93683051  0.01859872  1  0.030074  -1e-06  0.094536  0.135598  -0.0  0.986958  0.0
H  H76  1  0.60409147  0.93693869  0.51866131  1  0.042401  -0.0  0.094409  0.135058  -0.0  0.98711  0.0
H  H77  1  0.66732794  0.06316814  0.98140163  1  0.029777  -1e-06  0.094453  0.135433  -0.0  0.986963  0.0
H  H78  1  0.23809464  0.94260709  0.48029807  1  0.040711  3e-06  0.091598  0.128365  2e-06  1.036995  0.0
H  H79  1  0.29509759  0.05714151  0.01969132  1  0.075463  2e-06  0.091754  0.128717  1e-06  1.036798  0.0
H  H80  1  0.76190746  0.05739329  0.51970160  1  0.04068  3e-06  0.091594  0.128349  2e-06  1.03703  0.0
H  H81  1  0.70490894  0.94286061  0.98031007  1  0.075502  2e-06  0.091777  0.128742  1e-06  1.036784  0.0
H  H82  1  0.21433445  0.96981671  0.63313034  1  0.103542  0.000155  0.100243  0.115949  4e-05  1.038046  0.0
H  H83  1  0.24449749  0.03037202  0.86687572  1  0.107944  0.000155  0.099816  0.115493  4e-05  1.038742  0.0
H  H84  1  0.78566990  0.03018281  0.36686811  1  0.103431  0.000155  0.100205  0.115887  4e-05  1.03814  0.0
H  H85  1  0.75549752  0.96962663  0.13312271  1  0.108023  0.000155  0.099812  0.115515  4e-05  1.038764  0.0
H  H86  1  0.28958299  0.84696224  0.66336569  1  0.076191  3e-06  0.100317  0.104234  -8.1e-05  1.019811  0.0
H  H87  1  0.44264046  0.15334078  0.83666978  1  0.076742  3e-06  0.100252  0.103616  -8.2e-05  1.020184  0.0
H  H88  1  0.71042266  0.15303987  0.33663378  1  0.076043  3e-06  0.100279  0.104153  -8.1e-05  1.019866  0.0
H  H89  1  0.55735368  0.84665614  0.16332885  1  0.076321  4e-06  0.100275  0.103673  -8.2e-05  1.020123  0.0
H  H90  1  0.58545059  0.88812436  0.59367984  1  0.075343  0.000394  0.102625  0.111398  0.000113  0.999058  0.0
H  H91  1  0.69728596  0.11227627  0.90639206  1  0.106115  0.000391  0.102818  0.111381  0.000115  0.999151  0.0
H  H92  1  0.41454675  0.11186649  0.40631769  1  0.075503  0.000393  0.102636  0.111446  0.000112  0.999  0.0
H  H93  1  0.30271077  0.88772585  0.09360669  1  0.105948  0.000391  0.102816  0.111359  0.000115  0.999108  0.0
H  H94  1  0.52149702  0.02007917  0.56525307  1  0.050259  1.2e-05  0.094523  0.098511  1e-06  1.054757  0.0
H  H95  1  0.50133665  0.98028854  0.93480730  1  0.042925  8e-06  0.094525  0.098364  -1e-06  1.054231  0.0
H  H96  1  0.47849945  0.97990994  0.43474419  1  0.050188  1.2e-05  0.094483  0.09846  1e-06  1.054779  0.0
H  H97  1  0.49865968  0.01971097  0.06519211  1  0.042941  8e-06  0.094505  0.098328  -1e-06  1.054242  0.0
H  H98  1  0.98745183  0.47636142  0.55441346  1  0.054812  1.6e-05  0.100536  0.110646  6e-06  1.024147  0.0
H  H99  1  0.51032409  0.52382109  0.94561118  1  0.055665  1.6e-05  0.100563  0.110282  6e-06  1.024561  0.0
H  H100  1  0.01255068  0.52364157  0.44558699  1  0.054946  1.6e-05  0.100537  0.110644  6e-06  1.024206  0.0
H  H101  1  0.48967354  0.47618103  0.05439045  1  0.055471  1.6e-05  0.100595  0.110293  6e-06  1.024509  0.0
H  H102  1  0.84992773  0.55635409  0.58389763  1  0.069196  0.000423  0.105113  0.10825  0.000145  1.004723  0.0
H  H103  1  0.29284627  0.44383549  0.91610720  1  0.082135  0.000432  0.105384  0.108832  0.000146  1.004545  0.0
H  H104  1  0.15007392  0.44364717  0.41610350  1  0.069247  0.000423  0.105131  0.108278  0.000145  1.004694  0.0
H  H105  1  0.70715006  0.55616403  0.08389509  1  0.082199  0.000432  0.105361  0.108831  0.000146  1.004532  0.0
H  H106  1  0.62764012  0.22961352  0.62318324  1  0.096674  0.000119  0.105451  0.108769  3.2e-05  1.005776  0.0
H  H107  1  0.39753708  0.77046183  0.87672521  1  0.102488  0.000102  0.1053  0.107952  2e-05  1.005906  0.0
H  H108  1  0.37235982  0.77038253  0.37681633  1  0.096682  0.000119  0.105464  0.108809  3.2e-05  1.005749  0.0
H  H109  1  0.60246021  0.22953248  0.12327360  1  0.103319  0.000102  0.10532  0.108021  2.1e-05  1.005876  0.0
H  H110  1  0.75920708  0.14509978  0.59222164  1  0.059967  9.6e-05  0.10469  0.119314  3.7e-05  1.009359  0.0
H  H111  1  0.61355739  0.85499546  0.90770173  1  0.057705  0.000101  0.10485  0.11947  4e-05  1.009241  0.0
H  H112  1  0.24079194  0.85489800  0.40777654  1  0.059939  9.6e-05  0.104692  0.119322  3.7e-05  1.009321  0.0
H  H113  1  0.38644255  0.14500059  0.09229616  1  0.057697  0.000101  0.104842  0.119438  4e-05  1.009284  0.0
H  H114  1  0.39486798  0.35507552  0.67795919  1  0.131978  0.001063  0.121377  0.119969  0.00032  1.027924  0.001
H  H115  1  0.03962286  0.64514899  0.82203357  1  0.126026  0.001074  0.121492  0.11997  0.000319  1.027615  0.001
H  H116  1  0.60512878  0.64492487  0.32204000  1  0.131921  0.001064  0.12135  0.119944  0.00032  1.027871  0.001
H  H117  1  0.96037566  0.35485313  0.17796758  1  0.126246  0.001074  0.12148  0.119929  0.000319  1.02765  0.001
H  H118  1  0.12221442  0.27066159  0.68401836  1  0.171901  0.000898  0.124592  0.134835  0.000356  1.039531  0.0
H  H119  1  0.85115775  0.72924876  0.81593638  1  0.165935  0.000914  0.124382  0.134817  0.000362  1.039441  0.0
H  H120  1  0.87778502  0.72933880  0.31598227  1  0.171936  0.000898  0.124579  0.134866  0.000356  1.039489  0.0
H  H121  1  0.14884255  0.27075336  0.18406405  1  0.165807  0.000914  0.124389  0.134854  0.000362  1.039419  0.0
H  H122  1  0.26636743  0.57032350  0.63167271  1  0.116838  0.00073  0.142055  0.107937  9.5e-05  0.991985  0.0
H  H123  1  0.69621707  0.42998680  0.86844741  1  0.120605  0.000729  0.142192  0.108748  9.5e-05  0.990918  0.0
H  H124  1  0.73362801  0.42967601  0.36832814  1  0.11681  0.00073  0.142039  0.107907  9.5e-05  0.991985  0.0
H  H125  1  0.30378412  0.57001532  0.13155350  1  0.120613  0.000728  0.142196  0.108744  9.5e-05  0.990926  0.0
H  H126  1  0.96061899  0.32648481  0.63792399  1  0.076463  6e-05  0.10625  0.088596  2e-05  1.030836  0.0
H  H127  1  0.63383889  0.67349387  0.86211869  1  0.084167  5.8e-05  0.10644  0.088593  1.9e-05  1.030691  0.0
H  H128  1  0.03937825  0.67351297  0.36207730  1  0.076585  6e-05  0.106242  0.088597  2e-05  1.030836  0.0
H  H129  1  0.36615746  0.32650392  0.13788165  1  0.084188  5.8e-05  0.106421  0.088546  1.9e-05  1.03066  0.0
H  H130  1  0.02930459  0.47715316  0.63722990  1  0.072561  2.6e-05  0.112587  0.091859  -1.7e-05  1.011547  0.0
H  H131  1  0.55203067  0.52280984  0.86283612  1  0.068009  2.8e-05  0.112609  0.091833  -1.6e-05  1.010926  0.0
H  H132  1  0.97069174  0.52284636  0.36277095  1  0.072472  2.6e-05  0.11259  0.091865  -1.7e-05  1.01148  0.0
H  H133  1  0.44796879  0.47718881  0.13716423  1  0.068046  2.8e-05  0.112635  0.091851  -1.6e-05  1.010872  0.0
H  H134  1  0.87291498  0.19406521  0.65815985  1  0.016614  1.4e-05  0.089029  0.124884  1e-06  1.040974  0.0
H  H135  1  0.67906388  0.80589384  0.84177117  1  0.020484  1.8e-05  0.089253  0.125481  2e-06  1.040431  0.0
H  H136  1  0.12708003  0.80593344  0.34184122  1  0.016533  1.4e-05  0.089049  0.124927  1e-06  1.040967  0.0
H  H137  1  0.32093115  0.19410308  0.15822987  1  0.02055  1.8e-05  0.089245  0.125529  2e-06  1.040379  0.0
H  H138  1  0.73686940  0.13643215  0.68291833  1  0.0356  7.9e-05  0.094106  0.133653  3.4e-05  0.99828  0.0
H  H139  1  0.60055415  0.86352305  0.81704682  1  0.054874  7.1e-05  0.094515  0.134041  3.1e-05  0.998832  0.0
H  H140  1  0.26312871  0.86356737  0.31708301  1  0.035562  7.9e-05  0.094124  0.133658  3.4e-05  0.998319  0.0
H  H141  1  0.39944310  0.13647473  0.18295495  1  0.055217  7e-05  0.094532  0.134049  3.1e-05  0.998802  0.0
H  H142  1  0.89570402  0.15634865  0.69659405  1  0.079203  0.000184  0.094543  0.139378  6.4e-05  1.017473  0.0
H  H143  1  0.73923546  0.84330695  0.80330171  1  0.075045  0.000192  0.094635  0.139325  6.6e-05  1.017684  0.0
H  H144  1  0.10429496  0.84365261  0.30340660  1  0.07922  0.000184  0.09459  0.139422  6.4e-05  1.017399  0.0
H  H145  1  0.26076133  0.15669170  0.19669936  1  0.07495  0.000192  0.094647  0.139316  6.6e-05  1.017702  0.0
H  H146  1  0.07599084  0.71407788  0.69332535  1  0.062256  9.4e-05  0.094103  0.135742  -6.6e-05  1.039281  0.0
H  H147  1  0.36183188  0.28576086  0.80671896  1  0.066233  9.2e-05  0.094078  0.135597  -6.6e-05  1.038915  0.0
H  H148  1  0.92400681  0.28592251  0.30667528  1  0.062317  9.4e-05  0.094136  0.135794  -6.6e-05  1.039256  0.0
H  H149  1  0.63816536  0.71423693  0.19328209  1  0.066566  9.2e-05  0.09404  0.135544  -6.6e-05  1.038948  0.0
H  H150  1  0.03752992  0.62940071  0.65649798  1  0.019113  5.4e-05  0.092992  0.131198  8e-06  0.999058  0.0
H  H151  1  0.40794397  0.37031400  0.84357279  1  0.019365  5.8e-05  0.093117  0.131329  9e-06  0.999038  0.0
H  H152  1  0.96246908  0.37059881  0.34350287  1  0.019067  5.4e-05  0.093023  0.131261  8e-06  0.998972  0.0
H  H153  1  0.59205277  0.62968812  0.15642812  1  0.01945  5.8e-05  0.093104  0.131279  9e-06  0.999153  0.0
H  H154  1  0.17386672  0.64317199  0.68076561  1  0.083497  6.5e-05  0.093519  0.136444  -6e-06  1.024574  0.0
H  H155  1  0.53059399  0.35679407  0.81927291  1  0.064975  5.2e-05  0.093427  0.136478  -1.3e-05  1.024989  0.0
H  H156  1  0.82613139  0.35682753  0.31923548  1  0.083466  6.5e-05  0.093502  0.136409  -6e-06  1.024592  0.0
H  H157  1  0.46940368  0.64320459  0.18072912  1  0.064944  5.2e-05  0.093424  0.136483  -1.3e-05  1.024911  0.0
H  H158  1  0.63594040  0.38164313  0.76092369  1  0.030877  4.1e-05  0.093021  0.133237  7e-06  1.009884  0.0
H  H159  1  0.25382788  0.61796824  0.73915882  1  0.039795  4.6e-05  0.093133  0.133134  9e-06  1.009588  0.0
H  H160  1  0.36405768  0.61835813  0.23907720  1  0.03089  4.1e-05  0.093028  0.133262  7e-06  1.009851  0.0
H  H161  1  0.74617290  0.38203128  0.26084107  1  0.039786  4.6e-05  0.093136  0.133152  9e-06  1.009553  0.0
H  H162  1  0.74545774  0.52609931  0.77258436  1  0.058287  1.1e-05  0.087382  0.117299  -1e-05  1.05947  0.0
H  H163  1  0.21896947  0.47351736  0.72749813  1  0.049993  1.1e-05  0.087567  0.117547  -1e-05  1.059352  0.0
H  H164  1  0.25454124  0.47390194  0.22741629  1  0.058313  1.1e-05  0.087377  0.117305  -1e-05  1.059457  0.0
H  H165  1  0.78102997  0.52648302  0.27250178  1  0.049993  1.1e-05  0.087565  0.117537  -1e-05  1.059376  0.0
H  H166  1  0.76649571  0.41118613  0.78892385  1  0.106172  0.00011  0.096966  0.146652  -2e-06  1.021515  0.0
H  H167  1  0.35476419  0.58847919  0.71111555  1  0.107809  0.000118  0.097046  0.146442  -1e-06  1.021342  0.0
H  H168  1  0.23350460  0.58881599  0.21107706  1  0.106259  0.00011  0.096967  0.146688  -2e-06  1.021511  0.0
H  H169  1  0.64523613  0.41152120  0.28888484  1  0.107799  0.000118  0.097029  0.146432  -1e-06  1.021319  0.0
H  H170  1  0.91417103  0.65517208  0.76528714  1  0.045019  0.000249  0.111588  0.0982  6.9e-05  1.01214  0.0
H  H171  1  0.25893881  0.34469819  0.73476252  1  0.06275  0.000245  0.111556  0.097952  6.9e-05  1.011844  0.0
H  H172  1  0.08582482  0.34483003  0.23471186  1  0.045031  0.000249  0.111582  0.098194  6.9e-05  1.01208  0.0
H  H173  1  0.74105973  0.65530220  0.26523787  1  0.062736  0.000245  0.111558  0.097935  6.9e-05  1.011818  0.0
H  H174  1  0.02159489  0.72422394  0.73497886  1  0.076333  0.000403  0.114141  0.10329  4.2e-05  1.017611  0.0
H  H175  1  0.29712093  0.27558916  0.76509172  1  0.089615  0.000408  0.114085  0.103502  4.5e-05  1.01708  0.0
H  H176  1  0.97840319  0.27577732  0.26502179  1  0.076255  0.000403  0.114151  0.103309  4.2e-05  1.017513  0.0
H  H177  1  0.70288030  0.72440949  0.23490768  1  0.089648  0.000408  0.114096  0.103512  4.5e-05  1.017089  0.0
H  H178  1  0.85969359  0.84032574  0.74762438  1  0.200125  0.000763  0.122316  0.136001  0.000295  1.041262  0.0
H  H179  1  0.01928637  0.15972525  0.75242124  1  0.184304  0.000775  0.122099  0.13561  0.000294  1.041549  0.0
H  H180  1  0.14030541  0.15967378  0.25237384  1  0.199961  0.000763  0.122327  0.136033  0.000295  1.041358  0.0
H  H181  1  0.98071263  0.84027427  0.24757985  1  0.184228  0.000775  0.122117  0.135609  0.000294  1.041511  0.0
H  H182  1  0.66053532  0.81836530  0.70265326  1  0.112006  0.000814  0.118539  0.117015  0.000164  1.015358  0.001
H  H183  1  0.84197922  0.18189862  0.79733578  1  0.142444  0.000801  0.118896  0.116798  0.000164  1.015698  0.001
H  H184  1  0.33945533  0.18162641  0.29734430  1  0.111844  0.000814  0.118513  0.11691  0.000164  1.015526  0.001
H  H185  1  0.15802154  0.81810263  0.20266631  1  0.142798  0.0008  0.118901  0.11682  0.000164  1.015703  0.001
H  H186  1  0.73028378  0.52262501  0.69007248  1  0.183026  0.00057  0.132685  0.106053  0.000108  1.050561  0.001
H  H187  1  0.20753533  0.47747997  0.80995338  1  0.186805  0.000565  0.132734  0.105939  0.000105  1.050446  0.001
H  H188  1  0.26971572  0.47737017  0.30992780  1  0.183108  0.00057  0.132642  0.106008  0.000108  1.050636  0.001
H  H189  1  0.79247079  0.52251955  0.19004700  1  0.186783  0.000566  0.132762  0.105953  0.000105  1.050377  0.001
H  H190  1  0.73454632  0.14652408  0.73486891  1  0.086544  4.4e-05  0.112026  0.098365  -4e-05  0.979729  0.0
H  H191  1  0.58811677  0.85317375  0.76506867  1  0.079519  1.3e-05  0.112142  0.098556  -5.9e-05  0.979379  0.0
H  H192  1  0.26545844  0.85347804  0.26513344  1  0.086285  4.4e-05  0.112037  0.098445  -4.1e-05  0.979652  0.0
H  H193  1  0.41188228  0.14682230  0.23493258  1  0.079542  1.3e-05  0.112139  0.098546  -5.9e-05  0.979362  0.0
H  H194  1  0.72077780  0.23595949  0.76761198  1  0.108876  0.000114  0.119275  0.113891  -4e-06  1.02168  0.0
H  H195  1  0.48476054  0.76366500  0.73235031  1  0.108346  0.00011  0.119409  0.114678  -6e-06  1.020835  0.0
H  H196  1  0.27922785  0.76404263  0.23238940  1  0.108961  0.000114  0.119292  0.11393  -4e-06  1.021659  0.0
H  H197  1  0.51524154  0.23633712  0.26765036  1  0.108277  0.00011  0.119421  0.114643  -6e-06  1.020876  0.0
H  H198  1  0.58950220  0.25205293  0.68430761  1  0.170164  0.000909  0.122619  0.133199  0.000364  1.036997  0.0
H  H199  1  0.33745714  0.74772699  0.81565317  1  0.178749  0.000908  0.122906  0.133585  0.000367  1.037163  0.0
H  H200  1  0.41050042  0.74794313  0.31569484  1  0.169984  0.00091  0.1226  0.133202  0.000364  1.03704  0.0
H  H201  1  0.66254892  0.25227773  0.18434804  1  0.178822  0.000908  0.122897  0.133561  0.000367  1.037189  0.0
H  H202  1  0.31589636  0.14984973  0.68802865  1  0.112881  0.000885  0.122164  0.121068  0.000154  1.007489  0.001
H  H203  1  0.16625160  0.85009164  0.81194400  1  0.103089  0.000894  0.122088  0.12081  0.000156  1.007687  0.001
H  H204  1  0.68410852  0.85014372  0.31197207  1  0.112767  0.000885  0.122174  0.121095  0.000154  1.007498  0.001
H  H205  1  0.83374961  0.14990875  0.18805783  1  0.103238  0.000894  0.122067  0.120774  0.000156  1.007679  0.001
H  H206  1  0.48304736  0.11296122  0.77475651  1  0.149613  0.000492  0.141554  0.115449  -6e-06  0.990495  0.0
H  H207  1  0.37024587  0.88687320  0.72520563  1  0.149528  0.000485  0.141247  0.114941  -9e-06  0.990755  0.0
H  H208  1  0.51695299  0.88703744  0.22524553  1  0.149745  0.000492  0.141472  0.115302  -6e-06  0.990725  0.0
H  H209  1  0.62975224  0.11312632  0.27479546  1  0.149532  0.000486  0.141228  0.114938  -8e-06  0.99072  0.0
C  C210  1  0.94512639  0.00046605  0.30447555  1  1.508828  0.003442  0.1959  0.552234  0.002662  4.230544  0.001
C  C211  1  0.94517145  0.00003907  0.19547014  1  1.521638  0.003407  0.196628  0.55447  0.002675  4.228192  0.001
C  C212  1  0.05487085  0.99953173  0.69552310  1  1.508675  0.003442  0.195932  0.552292  0.002662  4.230356  0.001
C  C213  1  0.05482707  0.99996305  0.80453053  1  1.521804  0.003407  0.196596  0.554425  0.002674  4.228237  0.001
C  C214  1  0.00106774  0.03607827  0.33787750  1  -0.007572  0.002646  -0.036987  -0.077987  0.0013  4.026923  0.002
C  C215  1  0.96528999  0.96428748  0.16205922  1  -0.124361  0.002683  -0.037302  -0.07845  0.001297  4.02783  0.002
C  C216  1  0.99892859  0.96392125  0.66212120  1  -0.007479  0.002645  -0.037026  -0.078086  0.0013  4.027009  0.002
C  C217  1  0.03471385  0.03571638  0.83794053  1  -0.124752  0.002683  -0.037272  -0.078359  0.001297  4.028087  0.002
C  C218  1  0.06741311  0.15350269  0.34935359  1  -0.063364  0.001699  -0.084517  -0.067125  0.000909  3.993204  0.001
C  C219  1  0.91424140  0.84685514  0.15061746  1  0.036754  0.001613  -0.083785  -0.065818  0.000886  3.992726  0.001
C  C220  1  0.93258454  0.84649770  0.65064560  1  -0.063605  0.001699  -0.084528  -0.06719  0.000908  3.993175  0.001
C  C221  1  0.08576422  0.15314871  0.84938181  1  0.037068  0.001613  -0.083757  -0.065734  0.000886  3.992725  0.001
C  C222  1  0.11982766  0.18513251  0.38057979  1  -0.020832  0.000318  -0.102489  -0.20231  4.8e-05  3.970403  0.0
C  C223  1  0.93480011  0.81515693  0.11937520  1  -0.003512  0.000297  -0.102258  -0.202223  2.6e-05  3.971299  0.0
C  C224  1  0.88016912  0.81486614  0.61941936  1  -0.020243  0.000318  -0.102481  -0.202314  4.8e-05  3.970276  0.0
C  C225  1  0.06520907  0.18484692  0.88062455  1  -0.004095  0.000297  -0.102305  -0.202345  2.6e-05  3.971393  0.0
C  C226  1  0.10294685  0.09890908  0.40136271  1  0.453251  0.001108  0.08857  0.272356  0.0005  4.050743  0.001
C  C227  1  0.00405462  0.90131802  0.09857152  1  0.440471  0.001132  0.088243  0.272382  0.000513  4.050837  0.001
C  C228  1  0.89705167  0.90109303  0.59863628  1  0.452872  0.001108  0.088544  0.2724  0.0005  4.05064  0.001
C  C229  1  0.99595584  0.09869017  0.90142881  1  0.442804  0.001132  0.088207  0.272395  0.000513  4.050705  0.001
C  C230  1  0.03531362  0.98127852  0.39050503  1  -0.107615  0.00073  -0.11616  -0.231544  0.000359  4.008928  0.0
C  C231  1  0.05395216  0.01898861  0.10938959  1  -0.025259  0.000706  -0.116738  -0.23164  0.000349  4.008307  0.0
C  C232  1  0.96467780  0.01872187  0.60949440  1  -0.107394  0.00073  -0.116091  -0.231451  0.000359  4.008786  0.0
C  C233  1  0.94605209  0.98101785  0.89060950  1  -0.027551  0.000706  -0.11669  -0.231536  0.00035  4.007951  0.0
C  C234  1  0.98649799  0.95150198  0.35885082  1  0.066901  0.002019  -0.090896  -0.068896  0.001041  4.021319  0.001
C  C235  1  0.03501596  0.04882416  0.14105373  1  -0.030415  0.00203  -0.090422  -0.069337  0.001038  4.021332  0.001
C  C236  1  0.01349785  0.04850014  0.64114842  1  0.066718  0.002019  -0.09091  -0.068957  0.001041  4.02136  0.001
C  C237  1  0.96498831  0.95118056  0.85894556  1  -0.030408  0.00203  -0.090531  -0.069581  0.001038  4.021545  0.001
C  C238  1  0.11302048  0.05020341  0.45502365  1  0.433561  -2e-06  -0.066612  -0.012268  0.0  3.916192  0.0
C  C239  1  0.06259967  0.94986521  0.04490738  1  0.420507  -1e-06  -0.06697  -0.01299  1e-06  3.915696  0.0
C  C240  1  0.88698560  0.94979957  0.54497488  1  0.433157  -2e-06  -0.066554  -0.012187  0.0  3.916338  0.0
C  C241  1  0.93740369  0.05014125  0.95509219  1  0.420212  -1e-06  -0.066881  -0.012931  0.0  3.915532  0.0
C  C242  1  0.15436747  0.11200128  0.48791642  1  0.041382  1.1e-05  -0.019978  -0.041762  5e-06  3.92334  0.0
C  C243  1  0.04211990  0.88795877  0.01202845  1  0.018567  2e-05  -0.019553  -0.040798  1e-05  3.923445  0.0
C  C244  1  0.84563688  0.88799823  0.51208203  1  0.041943  1.1e-05  -0.019955  -0.041743  5e-06  3.9234  0.0
C  C245  1  0.95788563  0.11205202  0.98797050  1  0.018634  2e-05  -0.019522  -0.040789  1e-05  3.9236  0.0
C  C246  1  0.09699536  0.18551806  0.49891485  1  -0.054355  -0.0  0.000214  0.1014  -1e-06  3.923855  0.0
C  C247  1  0.91120617  0.81451435  0.00102942  1  -0.043795  2e-06  -0.000114  0.101795  1e-06  3.924093  0.0
C  C248  1  0.90300677  0.81448059  0.50108382  1  -0.054447  0.0  0.000208  0.101394  -0.0  3.924043  0.0
C  C249  1  0.08879717  0.18549383  0.99897066  1  -0.043736  2e-06  -0.000155  0.101795  1e-06  3.924123  0.0
C  C250  1  0.13517311  0.24582487  0.52953679  1  -0.016414  1e-06  -0.027043  -0.060927  3e-06  3.949785  0.0
C  C251  1  0.88901020  0.75420458  0.97040278  1  -0.012143  6e-06  -0.026591  -0.061013  5e-06  3.949122  0.0
C  C252  1  0.86482811  0.75417552  0.47046217  1  -0.016497  1e-06  -0.027062  -0.060891  2e-06  3.949976  0.0
C  C253  1  0.11099094  0.24580100  0.02959773  1  -0.012509  6e-06  -0.026607  -0.061053  5e-06  3.949039  0.0
C  C254  1  0.22731835  0.23150123  0.54947569  1  -0.027873  1e-06  -0.002015  0.098421  9e-06  3.940982  0.0
C  C255  1  0.99551810  0.76835715  0.95047575  1  -0.015366  -2e-06  -0.002417  0.097182  6e-06  3.941416  0.0
C  C256  1  0.77267798  0.76849829  0.45052420  1  -0.027843  1e-06  -0.002  0.098371  9e-06  3.941044  0.0
C  C257  1  0.00448702  0.23165103  0.04952434  1  -0.015221  -2e-06  -0.002441  0.0972  6e-06  3.941397  0.0
C  C258  1  0.28538465  0.15930159  0.53789107  1  0.002101  1.2e-05  -0.024555  -0.054853  8e-06  3.943674  0.0
C  C259  1  0.12581738  0.84051566  0.96207293  1  -0.004125  7e-06  -0.023486  -0.053464  7e-06  3.94185  0.0
C  C260  1  0.71461300  0.84069880  0.46210860  1  0.00211  1.2e-05  -0.024604  -0.054909  8e-06  3.943847  0.0
C  C261  1  0.87418333  0.15948906  0.03792707  1  -0.004125  7e-06  -0.023409  -0.053386  7e-06  3.941778  0.0
C  C262  1  0.24810245  0.09777326  0.50731106  1  -0.003992  -0.0  -0.001565  0.094564  -2e-06  3.929908  0.0
C  C263  1  0.15008017  0.90210827  0.99264817  1  -0.004389  1e-06  -0.002146  0.094231  -0.0  3.930181  0.0
C  C264  1  0.75189963  0.90222886  0.49268817  1  -0.004197  -0.0  -0.001554  0.094552  -1e-06  3.930018  0.0
C  C265  1  0.84992275  0.09789732  0.00735234  1  -0.004595  1e-06  -0.002301  0.094064  -0.0  3.930476  0.0
C  C266  1  0.99583796  0.19921583  0.47798506  1  -0.066626  4e-06  -0.240298  -0.410783  2e-06  3.959426  0.0
C  C267  1  0.79650047  0.80099242  0.02198210  1  -0.071801  5e-06  -0.240541  -0.412376  3e-06  3.960158  0.0
C  C268  1  0.00416241  0.80078108  0.52201381  1  -0.066581  4e-06  -0.24032  -0.410821  2e-06  3.959375  0.0
C  C269  1  0.20350113  0.19901230  0.97801863  1  -0.07174  5e-06  -0.240578  -0.41243  3e-06  3.960035  0.0
C  C270  1  0.07353179  0.32350751  0.54136092  1  0.355416  5e-06  -0.062886  0.00017  2e-06  3.909773  0.0
C  C271  1  0.74957118  0.67665231  0.95858818  1  0.401143  4e-06  -0.062761  -0.001315  2e-06  3.910973  0.0
C  C272  1  0.92646808  0.67649374  0.45863757  1  0.355378  5e-06  -0.062912  8.2e-05  2e-06  3.909881  0.0
C  C273  1  0.25043220  0.32335241  0.04141255  1  0.401428  4e-06  -0.062796  -0.001413  2e-06  3.910923  0.0
C  C274  1  0.26218339  0.29094960  0.58306439  1  -0.077457  3.1e-05  -0.243874  -0.420139  -7.1e-05  3.959324  0.0
C  C275  1  0.97107122  0.70882807  0.91690272  1  -0.080282  2.4e-05  -0.243696  -0.419749  -7.2e-05  3.961069  0.0
C  C276  1  0.73781383  0.70904992  0.41693430  1  -0.077563  3.1e-05  -0.243904  -0.420229  -7.1e-05  3.959316  0.0
C  C277  1  0.02893081  0.29117752  0.08309778  1  -0.080295  2.3e-05  -0.243668  -0.41981  -7.2e-05  3.961184  0.0
C  C278  1  0.38419465  0.14489968  0.55923258  1  0.439251  1.3e-05  -0.063898  -0.005217  9e-06  3.906691  0.0
C  C279  1  0.23916279  0.85509922  0.94074902  1  0.377488  8e-06  -0.064115  -0.004694  4e-06  3.906  0.0
C  C280  1  0.61580527  0.85509811  0.44076631  1  0.439295  1.3e-05  -0.063897  -0.005142  9e-06  3.906658  0.0
C  C281  1  0.76083617  0.14490376  0.05925143  1  0.377544  8e-06  -0.064151  -0.004746  4e-06  3.906168  0.0
C  C282  1  0.30799192  0.01747941  0.49555887  1  -0.067586  3e-06  -0.239739  -0.411668  2e-06  3.962878  0.0
C  C283  1  0.29027154  0.98240027  0.00439761  1  -0.073788  2e-06  -0.239997  -0.413121  2e-06  3.961558  0.0
C  C284  1  0.69200978  0.98251837  0.50444051  1  -0.067633  3e-06  -0.239779  -0.411696  2e-06  3.962851  0.0
C  C285  1  0.70973413  0.01760012  0.99560374  1  -0.073455  3e-06  -0.239938  -0.413009  2e-06  3.961691  0.0
C  C286  1  0.36205592  0.00209483  0.59738733  1  0.472654  0.000107  0.081599  0.262093  2.6e-05  4.06565  0.0
C  C287  1  0.35989813  0.99822480  0.90266940  1  0.46212  0.00018  0.081647  0.262843  7.7e-05  4.062952  0.0
C  C288  1  0.63794626  0.99790036  0.40261007  1  0.472797  0.000107  0.081521  0.262039  2.6e-05  4.065496  0.0
C  C289  1  0.64009688  0.00177385  0.09732952  1  0.462586  0.000179  0.081668  0.262858  7.6e-05  4.062884  0.0
C  C290  1  0.29724799  0.95311010  0.62513790  1  -0.056661  0.00077  -0.109066  -0.200905  0.000373  3.994185  0.001
C  C291  1  0.34409356  0.04718172  0.87490420  1  -0.050767  0.000794  -0.108528  -0.201488  0.000385  3.99346  0.001
C  C292  1  0.70276033  0.04689202  0.37486133  1  -0.056294  0.00077  -0.108977  -0.200807  0.000373  3.993953  0.001
C  C293  1  0.65590190  0.95281606  0.12509494  1  -0.051206  0.000794  -0.108634  -0.201652  0.000386  3.9936  0.001
C  C294  1  0.33863540  0.88417555  0.64162006  1  -0.015959  0.000946  -0.09103  -0.082987  0.00034  4.013065  0.001
C  C295  1  0.45442047  0.11613641  0.85842557  1  0.016174  0.001002  -0.090665  -0.080897  0.0004  4.012098  0.001
C  C296  1  0.66136759  0.11582484  0.35837889  1  -0.016164  0.000946  -0.091036  -0.082909  0.00034  4.013038  0.001
C  C297  1  0.54557501  0.88385964  0.14157281  1  0.016739  0.001002  -0.09073  -0.080984  0.0004  4.012144  0.001
C  C298  1  0.44215768  0.85936593  0.63039057  1  -0.03185  0.004761  -0.039634  -0.072175  0.002399  4.022677  0.003
C  C299  1  0.58273770  0.14099916  0.86966950  1  -0.071075  0.004776  -0.039919  -0.07347  0.002393  4.026283  0.003
C  C300  1  0.55784798  0.14063445  0.36960742  1  -0.032038  0.004761  -0.039669  -0.072291  0.002399  4.02275  0.003
C  C301  1  0.41725995  0.85900122  0.13032946  1  -0.071325  0.004777  -0.039738  -0.07338  0.002394  4.026124  0.003
C  C302  1  0.50585725  0.90824693  0.60258334  1  -0.035631  0.000681  -0.089582  -0.071698  0.000298  3.996158  0.0
C  C303  1  0.59758911  0.09216679  0.89748702  1  -0.051903  0.000596  -0.089684  -0.0713  0.000238  3.998088  0.0
C  C304  1  0.49414230  0.09174479  0.39741565  1  -0.035523  0.000681  -0.089581  -0.071743  0.000298  3.996037  0.0
C  C305  1  0.40240587  0.90783359  0.10251217  1  -0.05168  0.000596  -0.089731  -0.071258  0.000238  3.99784  0.0
C  C306  1  0.46848740  0.98122964  0.58639894  1  -0.06016  5.8e-05  -0.12  -0.241453  -1.4e-05  4.047101  0.0
C  C307  1  0.48723285  0.01917691  0.91366074  1  -0.070851  5.2e-05  -0.12031  -0.241947  -2.2e-05  4.047995  0.0
C  C308  1  0.53150904  0.01876121  0.41359860  1  -0.060112  5.8e-05  -0.119883  -0.241275  -1.4e-05  4.04706  0.0
C  C309  1  0.51276348  0.98082261  0.08633819  1  -0.07094  5.3e-05  -0.120205  -0.241795  -2.2e-05  4.04788  0.0
C  C310  1  0.47790264  0.77832849  0.64756369  1  1.536018  0.001304  0.191357  0.553594  0.001404  4.246393  0.0
C  C311  1  0.69951758  0.22196568  0.85248874  1  1.541017  0.001278  0.191553  0.554422  0.001362  4.24843  0.0
C  C312  1  0.52209687  0.22166669  0.35243538  1  1.536419  0.001304  0.191301  0.553503  0.001404  4.246409  0.0
C  C313  1  0.30047653  0.77803297  0.14750993  1  1.540685  0.001277  0.191463  0.554242  0.00136  4.248599  0.0
C  C314  1  0.88225630  0.30515061  0.57165996  1  0.407285  -0.000308  0.079209  0.253731  -0.0004  4.082476  0.0
C  C315  1  0.57651395  0.69499496  0.92831308  1  0.382224  -0.000314  0.078909  0.252073  -0.000403  4.083194  0.0
C  C316  1  0.11774443  0.69485237  0.42834001  1  0.407234  -0.000308  0.079311  0.253811  -0.000399  4.082507  0.0
C  C317  1  0.42348505  0.30500456  0.07168706  1  0.382087  -0.000314  0.078982  0.252211  -0.000403  4.083197  0.0
C  C318  1  0.90813074  0.42123866  0.56914969  1  -0.008156  9.9e-05  -0.118872  -0.243114  -6e-06  4.038364  0.0
C  C319  1  0.48621947  0.57893621  0.93085482  1  -0.003391  9.2e-05  -0.118743  -0.241789  -8e-06  4.038066  0.0
C  C320  1  0.09187132  0.57876519  0.43085126  1  -0.0084  9.9e-05  -0.118866  -0.243072  -6e-06  4.0385  0.0
C  C321  1  0.51377821  0.42106244  0.06914625  1  -0.003123  9.2e-05  -0.11871  -0.241748  -8e-06  4.038186  0.0
C  C322  1  0.83106840  0.46647897  0.58588699  1  -0.109526  0.000256  -0.0844  -0.066398  -3.4e-05  3.993385  0.0
C  C323  1  0.36392245  0.53369446  0.91411738  1  -0.028409  0.000288  -0.084818  -0.068047  -1e-06  3.993038  0.0
C  C324  1  0.16893060  0.53352055  0.41411411  1  -0.109455  0.000256  -0.084493  -0.066559  -3.4e-05  3.993451  0.0
C  C325  1  0.63607520  0.46630592  0.08588349  1  -0.028467  0.000289  -0.084812  -0.068058  -0.0  3.993038  0.0
C  C326  1  0.73094974  0.39894981  0.60578990  1  0.021847  0.003492  -0.031561  -0.062773  0.001735  4.001012  0.003
C  C327  1  0.33141646  0.60119200  0.89418642  1  -0.038995  0.003478  -0.031846  -0.062262  0.001714  3.998864  0.002
C  C328  1  0.26904974  0.60104711  0.39421066  1  0.021844  0.003493  -0.031494  -0.062679  0.001735  4.000954  0.003
C  C329  1  0.66858257  0.39880578  0.10581319  1  -0.038996  0.003477  -0.031878  -0.062291  0.001714  3.998954  0.002
C  C330  1  0.70568462  0.28257853  0.60777068  1  -0.034671  0.00067  -0.083174  -0.074847  0.000168  4.004057  0.001
C  C331  1  0.42258519  0.71753309  0.89216406  1  -0.088281  0.000661  -0.083367  -0.074093  0.000159  4.001934  0.001
C  C332  1  0.29431661  0.71742012  0.39222943  1  -0.034489  0.00067  -0.083185  -0.074879  0.000168  4.003931  0.001
C  C333  1  0.57741872  0.28246557  0.10783557  1  -0.089388  0.000662  -0.08344  -0.07421  0.000159  4.001995  0.001
C  C334  1  0.77873894  0.23534727  0.59063640  1  -0.007644  0.000767  -0.108408  -0.215525  0.000374  4.010385  0.001
C  C335  1  0.54281456  0.76478234  0.90931542  1  0.019732  0.000726  -0.107976  -0.214236  0.000352  4.009263  0.001
C  C336  1  0.22125914  0.76465398  0.40936282  1  -0.007764  0.000767  -0.108462  -0.215574  0.000374  4.010197  0.001
C  C337  1  0.45718938  0.23521458  0.09068345  1  0.019976  0.000726  -0.107968  -0.214259  0.000352  4.009171  0.001
C  C338  1  0.65455699  0.44820367  0.62599321  1  1.547245  8e-05  0.195278  0.552726  -0.000165  4.241646  -0.001
C  C339  1  0.20570620  0.55178333  0.87403614  1  1.564161  -2.8e-05  0.19459  0.550776  -0.000271  4.242211  -0.001
C  C340  1  0.34544206  0.55179238  0.37400661  1  1.547245  8e-05  0.195194  0.552623  -0.000164  4.241818  -0.001
C  C341  1  0.79429326  0.44821532  0.12596350  1  1.564242  -2.7e-05  0.194576  0.550785  -0.00027  4.242236  -0.001
C  C342  1  0.32655218  0.38636665  0.66927185  1  0.465736  0.002083  0.006901  -0.016908  0.00098  3.974841  0.002
C  C343  1  0.94000074  0.61378784  0.83072645  1  0.407065  0.002093  0.006848  -0.015985  0.000969  3.974296  0.002
C  C344  1  0.67344680  0.61363460  0.33072785  1  0.465758  0.002083  0.006919  -0.016812  0.00098  3.974744  0.002
C  C345  1  0.05999781  0.38621254  0.16927371  1  0.406688  0.002095  0.006853  -0.01594  0.00097  3.974356  0.002
C  C346  1  0.19176323  0.34389137  0.67193514  1  0.202348  0.004665  0.00063  -0.115503  0.002372  3.904146  0.003
C  C347  1  0.84755934  0.65608768  0.82804261  1  0.284688  0.004622  0.001  -0.115259  0.002373  3.904756  0.003
C  C348  1  0.80823621  0.65610901  0.32806573  1  0.202345  0.004665  0.000633  -0.115616  0.002372  3.90431  0.003
C  C349  1  0.15244007  0.34391444  0.17195830  1  0.285018  0.004621  0.000976  -0.115321  0.002373  3.904856  0.003
C  C350  1  0.26589004  0.50052565  0.64481738  1  0.99676  0.004219  0.146507  0.089909  0.002876  3.934304  0.004
C  C351  1  0.76539482  0.49974144  0.85526591  1  0.995995  0.004223  0.145554  0.088525  0.002889  3.934367  0.004
C  C352  1  0.73410453  0.49947214  0.35518320  1  0.996777  0.004218  0.146494  0.089963  0.002875  3.93429  0.004
C  C353  1  0.23460550  0.50025894  0.14473425  1  0.995914  0.004223  0.145557  0.088547  0.00289  3.934291  0.004
C  C354  1  0.02089124  0.40782554  0.65216968  1  0.297172  0.000906  -0.0511  -0.099138  0.000536  3.912763  0.001
C  C355  1  0.61280760  0.59213866  0.84788332  1  0.285306  0.000915  -0.05146  -0.09904  0.000539  3.911958  0.001
C  C356  1  0.97911043  0.59217398  0.34783046  1  0.297105  0.000906  -0.051154  -0.099206  0.000536  3.912804  0.001
C  C357  1  0.38719051  0.40786086  0.15211753  1  0.28528  0.000915  -0.051434  -0.098946  0.000539  3.911833  0.001
C  C358  1  0.95768537  0.41639219  0.68356241  1  0.00454  3.3e-05  -0.022155  -0.041333  -6.9e-05  3.914615  0.0
C  C359  1  0.54094060  0.58348085  0.81649726  1  -0.003602  3.7e-05  -0.022111  -0.041106  -6.5e-05  3.913645  0.0
C  C360  1  0.04231495  0.58360820  0.31643846  1  0.004481  3.2e-05  -0.022194  -0.041502  -6.9e-05  3.914751  0.0
C  C361  1  0.45905707  0.41651780  0.18350309  1  -0.00383  3.8e-05  -0.022095  -0.041053  -6.4e-05  3.913578  0.0
C  C362  1  0.98163726  0.52732648  0.69776299  1  -0.014303  0.000857  -0.003704  0.091548  0.000425  3.929603  0.001
C  C363  1  0.45403841  0.47251167  0.80231017  1  -0.013062  0.000799  -0.003172  0.093236  0.000394  3.930163  0.001
C  C364  1  0.01835996  0.47267304  0.30223810  1  -0.013975  0.000858  -0.003656  0.09171  0.000425  3.929554  0.001
C  C365  1  0.54595924  0.52748872  0.19769046  1  -0.012712  0.000799  -0.003204  0.093199  0.000394  3.930182  0.001
C  C366  1  0.91567776  0.53635918  0.72587235  1  0.005689  -0.000134  -0.019758  -0.04545  -0.000204  3.936049  0.0
C  C367  1  0.37916622  0.46347865  0.77418139  1  -0.009558  -0.000119  -0.020126  -0.046943  -0.000191  3.938385  0.0
C  C368  1  0.08432078  0.46364121  0.27412852  1  0.005576  -0.000134  -0.019758  -0.045452  -0.000204  3.935895  0.0
C  C369  1  0.62083278  0.53652087  0.22581874  1  -0.009513  -0.000119  -0.020143  -0.047013  -0.000191  3.938484  0.0
C  C370  1  0.82573645  0.43571609  0.73948003  1  -0.054719  0.000954  -2.2e-05  0.100889  0.000465  3.932884  0.001
C  C371  1  0.38978733  0.56407571  0.76055532  1  -0.053153  0.001046  -0.000593  0.099382  0.000512  3.93333  0.001
C  C372  1  0.17426429  0.56428690  0.26052138  1  -0.054932  0.000955  -2.3e-05  0.100834  0.000465  3.932848  0.001
C  C373  1  0.61021034  0.43592295  0.23944503  1  -0.053143  0.001046  -0.000614  0.099358  0.000512  3.933381  0.001
C  C374  1  0.80856942  0.32669321  0.72589964  1  0.02624  -0.000135  -0.021153  -0.039995  -0.000221  3.950219  0.0
C  C375  1  0.48174741  0.67309779  0.77410101  1  0.02143  -0.000116  -0.021132  -0.040603  -0.000207  3.951536  0.0
C  C376  1  0.19143088  0.67330891  0.27410199  1  0.02688  -0.000136  -0.021165  -0.039976  -0.000222  3.950291  0.0
C  C377  1  0.51825072  0.32690000  0.22589956  1  0.021661  -0.000116  -0.021117  -0.040562  -0.000207  3.951524  0.0
C  C378  1  0.87174873  0.31510195  0.69763481  1  -0.047035  0.000808  -0.005742  0.084893  0.000429  3.951766  0.001
C  C379  1  0.55638907  0.68471801  0.80238398  1  -0.02746  0.000761  -0.00559  0.085124  0.000404  3.951222  0.0
C  C380  1  0.12824890  0.68490017  0.30236706  1  -0.047058  0.000808  -0.005721  0.085061  0.000429  3.951813  0.001
C  C381  1  0.44360685  0.31527891  0.19761633  1  -0.027843  0.000761  -0.005657  0.08496  0.000404  3.951253  0.0
C  C382  1  0.84309337  0.19522370  0.68309411  1  -0.061467  0.000219  -0.242799  -0.418824  0.00013  3.958221  0.0
C  C383  1  0.64784837  0.80461634  0.81685330  1  -0.080445  0.000231  -0.243689  -0.420107  0.000138  3.958698  0.0
C  C384  1  0.15690385  0.80477582  0.31690698  1  -0.061405  0.00022  -0.242853  -0.418918  0.00013  3.958337  0.0
C  C385  1  0.35214710  0.19538144  0.18314799  1  -0.080682  0.000231  -0.243692  -0.420138  0.000138  3.958757  0.0
C  C386  1  0.07162495  0.63362425  0.68153155  1  -0.100687  0.000175  -0.243831  -0.425939  6.5e-05  3.950719  0.0
C  C387  1  0.43782066  0.36621205  0.81853752  1  -0.085526  0.000169  -0.243807  -0.426315  6.2e-05  3.951516  0.0
C  C388  1  0.92837273  0.36637440  0.31846928  1  -0.100707  0.000175  -0.243891  -0.426084  6.5e-05  3.950791  0.0
C  C389  1  0.56217437  0.63378487  0.18146328  1  -0.085988  0.000169  -0.243707  -0.426135  6.2e-05  3.951531  0.0
C  C390  1  0.74036492  0.44005709  0.76691432  1  -0.115096  6.4e-05  -0.24795  -0.422046  -1.3e-05  3.940284  0.0
C  C391  1  0.29988876  0.55961427  0.73313975  1  -0.112088  6.8e-05  -0.248202  -0.421388  -1.1e-05  3.939419  0.0
C  C392  1  0.25963360  0.55994503  0.23308683  1  -0.115102  6.4e-05  -0.247965  -0.422136  -1.3e-05  3.940268  0.0
C  C393  1  0.70011067  0.44038611  0.26686040  1  -0.112068  6.8e-05  -0.248194  -0.421391  -1.1e-05  3.939388  0.0
C  C394  1  0.92597757  0.65220317  0.73922503  1  0.313527  0.001025  -0.049056  -0.099104  0.000628  3.878879  0.001
C  C395  1  0.27362147  0.34766077  0.76082947  1  0.288682  0.001029  -0.048903  -0.098225  0.000628  3.87823  0.001
C  C396  1  0.07402097  0.34779722  0.26077512  1  0.313577  0.001025  -0.049037  -0.099085  0.000628  3.878755  0.001
C  C397  1  0.72637844  0.65233701  0.23917062  1  0.288433  0.00103  -0.048846  -0.098169  0.000628  3.878158  0.001
C  C398  1  0.80142893  0.77263838  0.72926269  1  0.282062  0.003626  0.002648  -0.092637  0.00178  3.878947  0.002
C  C399  1  0.02865899  0.22745817  0.77076773  1  0.305657  0.003578  0.003035  -0.09252  0.001769  3.878972  0.002
C  C400  1  0.19856785  0.22736026  0.27073503  1  0.282112  0.003627  0.0026  -0.092821  0.00178  3.878976  0.002
C  C401  1  0.97134182  0.77253962  0.22923404  1  0.305597  0.003579  0.003  -0.092567  0.001769  3.878707  0.002
C  C402  1  0.70432643  0.76053550  0.70723935  1  0.380712  0.003904  -0.002008  -0.030755  0.002316  4.001202  0.004
C  C403  1  0.94362062  0.23966281  0.79276882  1  0.344429  0.003969  -0.001881  -0.029381  0.002345  4.000356  0.004
C  C404  1  0.29567173  0.23946055  0.29275999  1  0.38098  0.003903  -0.001954  -0.030484  0.002316  4.001113  0.004
C  C405  1  0.05638325  0.76033931  0.20723233  1  0.344134  0.00397  -0.001809  -0.029333  0.002345  4.000157  0.004
C  C406  1  0.73809919  0.60606357  0.69952500  1  0.963011  0.005379  0.136112  0.081446  0.003362  3.915209  0.004
C  C407  1  0.13191432  0.39405163  0.80049281  1  0.943524  0.005374  0.135857  0.081989  0.003348  3.912875  0.004
C  C408  1  0.26189942  0.39393161  0.30047479  1  0.963069  0.005379  0.136141  0.081472  0.003362  3.915236  0.004
C  C409  1  0.86809048  0.60594702  0.19950826  1  0.944038  0.005374  0.135824  0.08193  0.003348  3.912912  0.004
C  C410  1  0.71370817  0.22098475  0.74130376  1  0.256216  0.00102  -0.05119  -0.116552  0.000526  3.912364  0.001
C  C411  1  0.49275528  0.77876545  0.75865944  1  0.261076  0.001037  -0.051442  -0.116488  0.000535  3.910381  0.001
C  C412  1  0.28629307  0.77901391  0.25869756  1  0.255764  0.00102  -0.051256  -0.116789  0.000526  3.912406  0.001
C  C413  1  0.50724682  0.22123494  0.24134167  1  0.261124  0.001037  -0.051454  -0.116317  0.000535  3.91031  0.001
C  C414  1  0.52630609  0.20471287  0.70304623  1  0.272272  0.004334  0.002798  -0.104465  0.002258  3.893834  0.003
C  C415  1  0.32169614  0.79511119  0.79691112  1  0.298919  0.004307  0.002979  -0.104827  0.002244  3.895585  0.003
C  C416  1  0.47369741  0.79528319  0.29695598  1  0.272166  0.004335  0.002803  -0.104464  0.002259  3.893926  0.003
C  C417  1  0.67830640  0.20489006  0.20308977  1  0.298811  0.004307  0.002952  -0.104764  0.002244  3.895748  0.003
C  C418  1  0.39089916  0.15601673  0.70536616  1  0.417054  0.001598  -0.000488  -0.025729  0.000536  3.985527  0.002
C  C419  1  0.23504922  0.84387289  0.79459979  1  0.386406  0.001611  -0.000159  -0.025309  0.000545  3.986986  0.002
C  C420  1  0.60910394  0.84397672  0.29463527  1  0.417038  0.001599  -0.000603  -0.025941  0.000537  3.98568  0.002
C  C421  1  0.76495505  0.15613183  0.20540214  1  0.386448  0.001611  -0.000149  -0.025299  0.000545  3.987066  0.002
C  C422  1  0.47130955  0.13354223  0.75052395  1  0.954736  0.001837  0.138441  0.076576  0.00057  3.920451  0.002
C  C423  1  0.33796402  0.86637846  0.74944404  1  0.960794  0.001798  0.138906  0.077361  0.000509  3.918917  0.002
C  C424  1  0.52869303  0.86645555  0.24947758  1  0.954737  0.001839  0.13847  0.076597  0.000571  3.920645  0.002
C  C425  1  0.66203898  0.13362192  0.25055636  1  0.960801  0.001797  0.13892  0.077381  0.000509  3.919023  0.002
N  N426  1  0.37169835  0.48454539  0.65251673  1  -1.224813  0.065525  -0.368203  -0.316498  0.034103  3.701125  0.041
N  N427  1  0.88714721  0.51574190  0.84754092  1  -1.21721  0.065358  -0.367824  -0.316368  0.034087  3.699865  0.041
N  N428  1  0.62830017  0.51545673  0.34748299  1  -1.224879  0.065527  -0.368176  -0.31655  0.034105  3.701131  0.041
N  N429  1  0.11285398  0.48426022  0.15245975  1  -1.217078  0.065357  -0.367838  -0.316382  0.034087  3.699873  0.041
N  N430  1  0.15501956  0.41702192  0.65616997  1  -1.23024  0.004007  -0.24375  0.047279  0.001651  3.761127  0.002
N  N431  1  0.73780458  0.58303411  0.84385751  1  -1.245037  0.00402  -0.24354  0.04636  0.001652  3.760678  0.002
N  N432  1  0.84497809  0.58297846  0.34383091  1  -1.230124  0.004006  -0.243713  0.047308  0.001651  3.761149  0.002
N  N433  1  0.26219266  0.41696368  0.15614330  1  -1.245169  0.004021  -0.243527  0.046343  0.001652  3.760662  0.002
N  N434  1  0.66516610  0.65604962  0.68892276  1  -1.242304  0.068569  -0.374076  -0.320506  0.035725  3.69156  0.043
N  N435  1  0.00893517  0.34413864  0.81107331  1  -1.233435  0.068514  -0.374003  -0.321358  0.035652  3.690116  0.043
N  N436  1  0.33483119  0.34394469  0.31107702  1  -1.242289  0.068562  -0.374083  -0.320632  0.035727  3.691692  0.043
N  N437  1  0.99106829  0.65586088  0.18892802  1  -1.23344  0.068514  -0.374078  -0.321525  0.035654  3.690276  0.043
N  N438  1  0.82219493  0.67455228  0.72383802  1  -1.22055  0.006188  -0.238638  0.057497  0.002763  3.726002  0.005
N  N439  1  0.14754093  0.32547350  0.77619967  1  -1.216973  0.006139  -0.238757  0.05713  0.002735  3.726551  0.004
N  N440  1  0.17780361  0.32544811  0.27616141  1  -1.220557  0.006188  -0.238627  0.057581  0.002763  3.725976  0.005
N  N441  1  0.85246122  0.67452341  0.22380089  1  -1.217197  0.006138  -0.238814  0.057256  0.002735  3.726393  0.004
N  N442  1  0.57512035  0.18916319  0.73183181  1  -1.228397  0.003494  -0.242615  0.049894  0.001389  3.771131  0.002
N  N443  1  0.38608996  0.81070047  0.76813294  1  -1.233413  0.003469  -0.243247  0.049184  0.001376  3.771231  0.002
N  N444  1  0.42488313  0.81083459  0.26816972  1  -1.228199  0.003494  -0.242487  0.050107  0.001389  3.770939  0.002
N  N445  1  0.61391433  0.18930252  0.23186823  1  -1.233408  0.003469  -0.243114  0.049089  0.001375  3.771408  0.002
N  N446  1  0.35752231  0.11163618  0.73503817  1  -1.220987  0.067528  -0.367623  -0.313838  0.035512  3.671654  0.047
N  N447  1  0.24609692  0.88831176  0.76494064  1  -1.214671  0.067495  -0.367945  -0.314094  0.035505  3.671473  0.047
N  N448  1  0.64248119  0.88835987  0.26496333  1  -1.220884  0.067531  -0.367511  -0.313626  0.035512  3.671483  0.047
N  N449  1  0.75390169  0.11168342  0.23505963  1  -1.214837  0.067495  -0.36805  -0.314139  0.035507  3.671614  0.047
O  O450  1  0.92240767  0.07581070  0.28950524  1  -1.139917  0.098201  -0.331118  -0.556239  0.0502  2.373239  0.074
O  O451  1  0.84723459  0.92474980  0.21048689  1  -1.149337  0.098095  -0.331377  -0.557564  0.050233  2.374699  0.074
O  O452  1  0.07759355  0.92418968  0.71049395  1  -1.139843  0.098196  -0.3311  -0.556283  0.0502  2.373307  0.074
O  O453  1  0.15276441  0.07524972  0.78951252  1  -1.149327  0.098098  -0.331373  -0.557542  0.050234  2.374635  0.074
O  O454  1  0.91832906  0.90056994  0.29146476  1  -1.187376  0.03202  -0.319506  -0.567785  0.015902  2.16587  0.025
O  O455  1  0.01833186  0.09999113  0.20843249  1  -1.193565  0.031726  -0.319356  -0.568073  0.015733  2.16568  0.025
O  O456  1  0.08166596  0.09942698  0.70853411  1  -1.18723  0.032019  -0.319529  -0.56779  0.015901  2.165755  0.025
O  O457  1  0.98166889  0.90001012  0.79156816  1  -1.193505  0.031727  -0.319383  -0.568112  0.015733  2.165661  0.025
O  O458  1  0.15429947  0.13681154  0.43191475  1  -1.061395  0.000739  -0.177749  -0.195196  0.000319  2.5115  0.001
O  O459  1  0.01751650  0.86333429  0.06803193  1  -1.063206  0.000751  -0.177985  -0.195206  0.000325  2.511166  0.001
O  O460  1  0.84569905  0.86319058  0.56808376  1  -1.061373  0.000739  -0.177852  -0.195278  0.000319  2.51148  0.001
O  O461  1  0.98248729  0.13667303  0.93196694  1  -1.063055  0.000751  -0.17785  -0.195044  0.000325  2.511176  0.001
O  O462  1  0.30903330  0.06405284  0.58230809  1  -1.067169  0.000289  -0.182558  -0.209666  0.000151  2.538919  0.0
O  O463  1  0.24490192  0.93617745  0.91773903  1  -1.068942  0.000259  -0.182766  -0.209933  0.000134  2.537882  0.0
O  O464  1  0.69096710  0.93594234  0.41768978  1  -1.067344  0.000289  -0.182551  -0.209719  0.000151  2.538758  0.0
O  O465  1  0.75509660  0.06382467  0.08225997  1  -1.068934  0.000258  -0.182779  -0.209932  0.000134  2.537935  0.0
O  O466  1  0.53928316  0.72908175  0.63052000  1  -1.142071  0.10388  -0.336032  -0.552949  0.05247  2.314898  0.081
O  O467  1  0.81017432  0.27109188  0.86952006  1  -1.140632  0.103909  -0.336339  -0.55339  0.052562  2.314815  0.081
O  O468  1  0.46071677  0.27091430  0.36947909  1  -1.142348  0.10388  -0.336006  -0.552896  0.052469  2.3149  0.081
O  O469  1  0.18982159  0.72890503  0.13047905  1  -1.140416  0.103897  -0.336375  -0.55338  0.052558  2.315043  0.081
O  O470  1  0.44437795  0.75834489  0.67613344  1  -1.196447  0.014498  -0.334638  -0.58789  0.007023  2.159514  0.011
O  O471  1  0.68600035  0.24199485  0.82392059  1  -1.196768  0.01444  -0.334776  -0.588317  0.007022  2.16035  0.011
O  O472  1  0.55562150  0.24165376  0.32386524  1  -1.196566  0.0145  -0.334628  -0.58786  0.007023  2.15933  0.011
O  O473  1  0.31399867  0.75800293  0.17607855  1  -1.196637  0.014441  -0.334731  -0.58821  0.007023  2.160201  0.011
O  O474  1  0.95231792  0.25203014  0.55692727  1  -1.061148  2e-05  -0.18271  -0.217019  9e-06  2.544089  0.0
O  O475  1  0.69977847  0.74812211  0.94302493  1  -1.063508  2.6e-05  -0.182254  -0.21595  1.4e-05  2.542663  0.0
O  O476  1  0.04768062  0.74797024  0.44307096  1  -1.06122  2e-05  -0.182729  -0.217008  9e-06  2.544205  0.0
O  O477  1  0.30022186  0.25187827  0.05697402  1  -1.063362  2.6e-05  -0.182242  -0.215931  1.4e-05  2.542698  0.0
O  O478  1  0.59608894  0.39758193  0.65005004  1  -1.179191  0.023931  -0.318302  -0.558233  0.011628  2.149117  0.019
O  O479  1  0.19757044  0.60230692  0.84997794  1  -1.179516  0.024231  -0.318366  -0.55821  0.011818  2.148748  0.019
O  O480  1  0.40390657  0.60241239  0.34995021  1  -1.179109  0.023929  -0.318208  -0.558137  0.011627  2.149215  0.019
O  O481  1  0.80243790  0.39769347  0.15002053  1  -1.17955  0.024234  -0.318328  -0.558213  0.01182  2.148832  0.019
O  O482  1  0.65508704  0.54389369  0.61773289  1  -1.138489  0.096124  -0.329692  -0.552879  0.048864  2.316169  0.074
O  O483  1  0.11078465  0.45601626  0.88231073  1  -1.142904  0.096437  -0.329  -0.551132  0.048979  2.316932  0.074
O  O484  1  0.34491066  0.45610323  0.38226719  1  -1.138557  0.096121  -0.329704  -0.552872  0.048862  2.316166  0.074
O  O485  1  0.88921610  0.54398499  0.11768848  1  -1.142951  0.096446  -0.329004  -0.551142  0.048983  2.316847  0.074
